examples/acopf/4601_bus/case.raw
0,100.0,33,0,1,60.0
GRID OPTIMIZATION COMPETITION
INPUT DATA FILES ARE RAW ROP INL CON
1,'Millstone',69.0,1,1,1,1,1.0,0.0,1.05,0.9,1.05,0.9
2,'New Haven ~1',138.0,2,1,1,1,1.0,0.0,1.05,0.9,1.05,0.9
3,'Bridgeport~2',69.0,1,1,1,1,1.0,0.0,1.05,0.9,1.05,0.9
4,'Milford Po~2',69.0,1,1,1,1,1.0,0.0,1.05,0.9,1.05,0.9
5,'Lake Road ~1',138.0,1,1,1,1,1.0,0.0,1.05,0.9,1.05,0.9
6,'Bridgeport~1',69.0,1,1,1,1,1.0,0.0,1.05,0.9,1.05,0.9
7,'Middletown',69.0,1,1,1,1,1.0,0.0,1.05,0.9,1.05,0.9
8,'Waterbury ~1',69.0,1,1,1,1,1.0,0.0,1.05,0.9,1.05,0.9
9,'A L Pierce',69.0,1,1,1,1,1.0,0.0,1.05,0.9,1.05,0.9
10,'Montville ~1',69.0,1,1,1,1,1.0,0.0,1.05,0.9,1.05,0.9
11,'Wheelabrat~1',69.0,2,1,1,1,1.0,0.0,1.05,0.9,1.05,0.9
12,'GenConn De~1',69.0,1,1,1,1,1.0,0.0,1.05,0.9,1.05,0.9
13,'Algonquin ~1',69.0,1,1,1,1,1.0,0.0,1.05,0.9,1.05,0.9
14,'Devon Stat~1',69.0,1,1,1,1,1.0,0.0,1.05,0.9,1.05,0.9
15,'Wallingfor~1',69.0,1,1,1,1,1.0,0.0,1.05,0.9,1.05,0.9
16,'CT Resourc~1',69.0,1,1,1,1,1.0,0.0,1.05,0.9,1.05,0.9
17,'Capital Di~1',69.0,1,1,1,1,1.0,0.0,1.05,0.9,1.05,0.9
18,'South Meadow',69.0,1,1,1,1,1.0,0.0,1.05,0.9,1.05,0.9
19,'Shepaug',69.0,2,1,1,1,1.0,0.0,1.05,0.9,1.05,0.9
20,'Exeter Ene~1',138.0,2,1,1,1,1.0,0.0,1.05,0.9,1.05,0.9
21,'Stevenson',69.0,2,1,1,1,1.0,0.0,1.05,0.9,1.05,0.9
22,'Pfizer Gro~1',69.0,1,1,1,1,1.0,0.0,1.05,0.9,1.05,0.9
23,'Pratt & Wh~1',69.0,1,1,1,1,1.0,0.0,1.05,0.9,1.05,0.9
24,'UCONN Coge~1',138.0,2,1,1,1,1.0,0.0,1.05,0.9,1.05,0.9
25,'Rocky Rive~1',69.0,2,1,1,1,1.0,0.0,1.05,0.9,1.05,0.9
26,'Waterside ~1',69.0,2,1,1,1,1.0,0.0,1.05,0.9,1.05,0.9
27,'Branford',69.0,2,1,1,1,1.0,0.0,1.05,0.9,1.05,0.9
28,'Franklin D~1',69.0,1,1,1,1,1.0,0.0,1.05,0.9,1.05,0.9
29,'Torrington~1',69.0,2,1,1,1,1.0,0.0,1.05,0.9,1.05,0.9
30,'Kimberly C~1',69.0,2,1,1,1,1.0,0.0,1.05,0.9,1.05,0.9
31,'Cos Cob',69.0,2,1,1,1,1.0,0.0,1.05,0.9,1.05,0.9
32,'Canal',69.0,1,1,1,1,1.0,0.0,1.05,0.9,1.05,0.9
33,'Stony Brook',69.0,1,1,1,1,1.0,0.0,1.05,0.9,1.05,0.9
34,'Bear Swamp',69.0,1,1,1,1,1.0,0.0,1.05,0.9,1.05,0.9
35,'Berkshire ~1',69.0,1,1,1,1,1.0,0.0,1.05,0.9,1.05,0.9
36,'ANP Bellin~1',69.0,1,1,1,1,1.0,0.0,1.05,0.9,1.05,0.9
37,'ANP Blacks~1',69.0,1,1,1,1,1.0,0.0,1.05,0.9,1.05,0.9
38,'Mystic Gen~1',69.0,1,1,1,1,1.0,0.0,1.05,0.9,1.05,0.9
39,'Fore River~1',69.0,1,1,1,1,1.0,0.0,1.05,0.9,1.05,0.9
40,'Kendall Sq~1',69.0,1,1,1,1,1.0,0.0,1.05,0.9,1.05,0.9
41,'Brayton Po~1',69.0,1,1,1,1,1.0,0.0,1.05,0.9,1.05,0.9
42,'Northfield~1',69.0,1,1,1,1,1.0,0.0,1.05,0.9,1.05,0.9
43,'Millennium~1',69.0,1,1,1,1,1.0,0.0,1.05,0.9,1.05,0.9
44,'Dighton Po~1',69.0,1,1,1,1,1.0,0.0,1.05,0.9,1.05,0.9
45,'Mount Tom',69.0,1,1,1,1,1.0,0.0,1.05,0.9,1.05,0.9
46,'Milford Po~1',69.0,1,1,1,1,1.0,0.0,1.05,0.9,1.05,0.9
47,'Bellingham~1',138.0,1,1,1,1,1.0,0.0,1.05,0.9,1.05,0.9
48,'Masspower',69.0,1,1,1,1,1.0,0.0,1.05,0.9,1.05,0.9
49,'Potter Sta~1',69.0,1,1,1,1,1.0,0.0,1.05,0.9,1.05,0.9
50,'M Street Jet',69.0,2,1,1,1,1.0,0.0,1.05,0.9,1.05,0.9
51,'Cabot',69.0,1,1,1,1,1.0,0.0,1.05,0.9,1.05,0.9
52,'Essential ~1',69.0,1,1,1,1,1.0,0.0,1.05,0.9,1.05,0.9
53,'Tanner Str~1',69.0,2,1,1,1,1.0,0.0,1.05,0.9,1.05,0.9
54,'Wheelabrat~3',69.0,1,1,1,1,1.0,0.0,1.05,0.9,1.05,0.9
55,'Covanta Ha~1',69.0,2,1,1,1,1.0,0.0,1.05,0.9,1.05,0.9
56,'Exelon Med~1',69.0,1,1,1,1,1.0,0.0,1.05,0.9,1.05,0.9
57,'Exelon Fra~1',69.0,2,1,1,1,1.0,0.0,1.05,0.9,1.05,0.9
58,'Pittsfield~1',69.0,1,1,1,1,1.0,0.0,1.05,0.9,1.05,0.9
59,'Wheelabrat~2',69.0,1,1,1,1,1.0,0.0,1.05,0.9,1.05,0.9
60,'SEMASS Res~1',69.0,1,1,1,1,1.0,0.0,1.05,0.9,1.05,0.9
61,'Hadley Falls',69.0,1,1,1,1,1.0,0.0,1.05,0.9,1.05,0.9
62,'Cobble Mou~1',69.0,2,1,1,1,1.0,0.0,1.05,0.9,1.05,0.9
63,'General El~1',138.0,2,1,1,1,1.0,0.0,1.05,0.9,1.05,0.9
64,'Deer Islan~1',69.0,1,1,1,1,1.0,0.0,1.05,0.9,1.05,0.9
65,'Medical Ar~1',69.0,2,1,1,1,1.0,0.0,1.05,0.9,1.05,0.9
66,'Dartmouth ~1',69.0,2,1,1,1,1.0,0.0,1.05,0.9,1.05,0.9
67,'Cleary Flood',69.0,1,1,1,1,1.0,0.0,1.05,0.9,1.05,0.9
68,'Boott Hydr~1',69.0,2,1,1,1,1.0,0.0,1.05,0.9,1.05,0.9
69,'Waters River',69.0,1,1,1,1,1.0,0.0,1.05,0.9,1.05,0.9
70,'Mass Inst ~1',69.0,2,1,1,1,1.0,0.0,1.05,0.9,1.05,0.9
71,'Doreen',69.0,2,1,1,1,1.0,0.0,1.05,0.9,1.05,0.9
72,'Woodland R~1',69.0,1,1,1,1,1.0,0.0,1.05,0.9,1.05,0.9
73,'Cabot Holy~1',69.0,2,1,1,1,1.0,0.0,1.05,0.9,1.05,0.9
74,'Bucksport ~1',69.0,1,1,1,1,1.0,0.0,1.05,0.9,1.05,0.9
75,'Westbrook ~1',69.0,1,1,1,1,1.0,0.0,1.05,0.9,1.05,0.9
76,'Rumford Po~1',138.0,2,1,1,1,1.0,0.0,1.05,0.9,1.05,0.9
77,'Maine Inde~1',69.0,1,1,1,1,1.0,0.0,1.05,0.9,1.05,0.9
78,'Great Lake~1',69.0,1,1,1,1,1.0,0.0,1.05,0.9,1.05,0.9
79,'Rumford Co~1',138.0,2,1,1,1,1.0,0.0,1.05,0.9,1.05,0.9
80,'Millinocke~1',69.0,1,1,1,1,1.0,0.0,1.05,0.9,1.05,0.9
81,'East Milli~1',69.0,1,1,1,1,1.0,0.0,1.05,0.9,1.05,0.9
82,'Stetson Wi~1',69.0,1,1,1,1,1.0,0.0,1.05,0.9,1.05,0.9
83,'Androscogg~1',69.0,1,1,1,1,1.0,0.0,1.05,0.9,1.05,0.9
84,'William F ~1',69.0,1,1,1,1,1.0,0.0,1.05,0.9,1.05,0.9
85,'Somerset P~1',138.0,1,1,1,1,1.0,0.0,1.05,0.9,1.05,0.9
86,'ReEnergy S~1',69.0,1,1,1,1,1.0,0.0,1.05,0.9,1.05,0.9
87,'Rumford Fa~1',69.0,2,1,1,1,1.0,0.0,1.05,0.9,1.05,0.9
88,'Mars Hill ~1',69.0,2,1,1,1,1.0,0.0,1.05,0.9,1.05,0.9
89,'ReEnergy L~1',69.0,1,1,1,1,1.0,0.0,1.05,0.9,1.05,0.9
90,'ReEnergy A~1',69.0,1,1,1,1,1.0,0.0,1.05,0.9,1.05,0.9
91,'ReEnergy F~1',69.0,2,1,1,1,1.0,0.0,1.05,0.9,1.05,0.9
92,'Cape Gas T~1',69.0,2,1,1,1,1.0,0.0,1.05,0.9,1.05,0.9
93,'Harris Hydro',69.0,1,1,1,1,1.0,0.0,1.05,0.9,1.05,0.9
94,'Anson Aben~1',69.0,1,1,1,1,1.0,0.0,1.05,0.9,1.05,0.9
95,'Red Shield~1',69.0,2,1,1,1,1.0,0.0,1.05,0.9,1.05,0.9
96,'Charles E ~1',69.0,1,1,1,1,1.0,0.0,1.05,0.9,1.05,0.9
97,'Indeck Jon~1',69.0,2,1,1,1,1.0,0.0,1.05,0.9,1.05,0.9
98,'Indeck Wes~1',69.0,1,1,1,1,1.0,0.0,1.05,0.9,1.05,0.9
99,'Caribou Ge~1',69.0,1,1,1,1,1.0,0.0,1.05,0.9,1.05,0.9
100,'Stetson Wi~2',69.0,1,1,1,1,1.0,0.0,1.05,0.9,1.05,0.9
101,'Penobscot ~1',69.0,2,1,1,1,1.0,0.0,1.05,0.9,1.05,0.9
102,'Androscogg~2',138.0,2,1,1,1,1.0,0.0,1.05,0.9,1.05,0.9
103,'Domtar - W~1',69.0,1,1,1,1,1.0,0.0,1.05,0.9,1.05,0.9
104,'Twin River~1',69.0,2,1,1,1,1.0,0.0,1.05,0.9,1.05,0.9
105,'Seabrook',69.0,1,1,1,1,1.0,0.0,1.05,0.9,1.05,0.9
106,'Newington',138.0,1,1,1,1,1.0,0.0,1.05,0.9,1.05,0.9
107,'Granite Ri~1',69.0,1,1,1,1,1.0,0.0,1.05,0.9,1.05,0.9
108,'Essential ~2',69.0,1,1,1,1,1.0,0.0,1.05,0.9,1.05,0.9
109,'Schiller',69.0,1,1,1,1,1.0,0.0,1.05,0.9,1.05,0.9
110,'Merrimack',69.0,1,1,1,1,1.0,0.0,1.05,0.9,1.05,0.9
111,'Berlin Gor~1',69.0,1,1,1,1,1.0,0.0,1.05,0.9,1.05,0.9
112,'Pinetree P~1',69.0,2,1,1,1,1.0,0.0,1.05,0.9,1.05,0.9
113,'Lempster W~1',69.0,2,1,1,1,1.0,0.0,1.05,0.9,1.05,0.9
114,'Bridgewate~1',69.0,2,1,1,1,1.0,0.0,1.05,0.9,1.05,0.9
115,'Springfiel~1',69.0,1,1,1,1,1.0,0.0,1.05,0.9,1.05,0.9
116,'Rhode Isla~1',69.0,1,1,1,1,1.0,0.0,1.05,0.9,1.05,0.9
117,'Tiverton P~1',69.0,1,1,1,1,1.0,0.0,1.05,0.9,1.05,0.9
118,'Manchester~1',69.0,1,1,1,1,1.0,0.0,1.05,0.9,1.05,0.9
119,'Ocean Stat~1',69.0,1,1,1,1,1.0,0.0,1.05,0.9,1.05,0.9
120,'Ocean Stat~2',69.0,1,1,1,1,1.0,0.0,1.05,0.9,1.05,0.9
121,'Pawtucket ~1',69.0,1,1,1,1,1.0,0.0,1.05,0.9,1.05,0.9
122,'Ridgewood ~1',69.0,1,1,1,1,1.0,0.0,1.05,0.9,1.05,0.9
123,'J C McNeil',69.0,2,1,1,1,1.0,0.0,1.05,0.9,1.05,0.9
124,'Berlin 5',69.0,1,1,1,1,1.0,0.0,1.05,0.9,1.05,0.9
125,'Bellows Fa~1',69.0,1,1,1,1,1.0,0.0,1.05,0.9,1.05,0.9
126,'Wilder',69.0,2,1,1,1,1.0,0.0,1.05,0.9,1.05,0.9
127,'Vernon Dam',69.0,1,1,1,1,1.0,0.0,1.05,0.9,1.05,0.9
128,'Harriman',69.0,2,1,1,1,1.0,0.0,1.05,0.9,1.05,0.9
129,'Burlington~1',69.0,2,1,1,1,1.0,0.0,1.05,0.9,1.05,0.9
130,'Sheldon Sp~1',69.0,1,1,1,1,1.0,0.0,1.05,0.9,1.05,0.9
131,'Ryegate Po~1',69.0,1,1,1,1,1.0,0.0,1.05,0.9,1.05,0.9
132,'9001010101',69.0,1,1,1,1,1.0,0.0,1.05,0.9,1.05,0.9
133,'9001010102',69.0,1,1,1,1,1.0,0.0,1.05,0.9,1.05,0.9
134,'9001010201',69.0,1,1,1,1,1.0,0.0,1.05,0.9,1.05,0.9
135,'9001010202',69.0,1,1,1,1,1.0,0.0,1.05,0.9,1.05,0.9
136,'9001010300',69.0,1,1,1,1,1.0,0.0,1.05,0.9,1.05,0.9
137,'9001010400',69.0,1,1,1,1,1.0,0.0,1.05,0.9,1.05,0.9
138,'9001010500',69.0,1,1,1,1,1.0,0.0,1.05,0.9,1.05,0.9
139,'9001010600',69.0,1,1,1,1,1.0,0.0,1.05,0.9,1.05,0.9
140,'9001010700',69.0,1,1,1,1,1.0,0.0,1.05,0.9,1.05,0.9
141,'9001010800',69.0,1,1,1,1,1.0,0.0,1.05,0.9,1.05,0.9
142,'9001010900',69.0,1,1,1,1,1.0,0.0,1.05,0.9,1.05,0.9
143,'9001011000',69.0,1,1,1,1,1.0,0.0,1.05,0.9,1.05,0.9
144,'9001011100',69.0,1,1,1,1,1.0,0.0,1.05,0.9,1.05,0.9
145,'9001011200',69.0,1,1,1,1,1.0,0.0,1.05,0.9,1.05,0.9
146,'9001011300',69.0,1,1,1,1,1.0,0.0,1.05,0.9,1.05,0.9
147,'9001020100',69.0,1,1,1,1,1.0,0.0,1.05,0.9,1.05,0.9
148,'9001020200',69.0,1,1,1,1,1.0,0.0,1.05,0.9,1.05,0.9
149,'9001020300',69.0,1,1,1,1,1.0,0.0,1.05,0.9,1.05,0.9
150,'9001020400',69.0,1,1,1,1,1.0,0.0,1.05,0.9,1.05,0.9
151,'9001020500',69.0,1,1,1,1,1.0,0.0,1.05,0.9,1.05,0.9
152,'9001020600',69.0,1,1,1,1,1.0,0.0,1.05,0.9,1.05,0.9
153,'9001020700',69.0,1,1,1,1,1.0,0.0,1.05,0.9,1.05,0.9
154,'9001020800',69.0,1,1,1,1,1.0,0.0,1.05,0.9,1.05,0.9
155,'9001020900',69.0,1,1,1,1,1.0,0.0,1.05,0.9,1.05,0.9
156,'9001021000',69.0,1,1,1,1,1.0,0.0,1.05,0.9,1.05,0.9
157,'9001021100',69.0,1,1,1,1,1.0,0.0,1.05,0.9,1.05,0.9
158,'9001021200',69.0,1,1,1,1,1.0,0.0,1.05,0.9,1.05,0.9
159,'9001021300',69.0,1,1,1,1,1.0,0.0,1.05,0.9,1.05,0.9
160,'9001021400',69.0,1,1,1,1,1.0,0.0,1.05,0.9,1.05,0.9
161,'9001021500',69.0,1,1,1,1,1.0,0.0,1.05,0.9,1.05,0.9
162,'9001021600',69.0,1,1,1,1,1.0,0.0,1.05,0.9,1.05,0.9
163,'9001021700',69.0,1,1,1,1,1.0,0.0,1.05,0.9,1.05,0.9
164,'9001021801',69.0,1,1,1,1,1.0,0.0,1.05,0.9,1.05,0.9
165,'9001021802',69.0,1,1,1,1,1.0,0.0,1.05,0.9,1.05,0.9
166,'9001021900',69.0,1,1,1,1,1.0,0.0,1.05,0.9,1.05,0.9
167,'9001022000',69.0,1,1,1,1,1.0,0.0,1.05,0.9,1.05,0.9
168,'9001022100',69.0,1,1,1,1,1.0,0.0,1.05,0.9,1.05,0.9
169,'9001022200',69.0,1,1,1,1,1.0,0.0,1.05,0.9,1.05,0.9
170,'9001022300',69.0,1,1,1,1,1.0,0.0,1.05,0.9,1.05,0.9
171,'9001022400',69.0,1,1,1,1,1.0,0.0,1.05,0.9,1.05,0.9
172,'9001030100',69.0,1,1,1,1,1.0,0.0,1.05,0.9,1.05,0.9
173,'9001030200',69.0,1,1,1,1,1.0,0.0,1.05,0.9,1.05,0.9
174,'9001030300',69.0,1,1,1,1,1.0,0.0,1.05,0.9,1.05,0.9
175,'9001030400',69.0,1,1,1,1,1.0,0.0,1.05,0.9,1.05,0.9
176,'9001030500',69.0,1,1,1,1,1.0,0.0,1.05,0.9,1.05,0.9
177,'9001035100',69.0,1,1,1,1,1.0,0.0,1.05,0.9,1.05,0.9
178,'9001035200',69.0,1,1,1,1,1.0,0.0,1.05,0.9,1.05,0.9
179,'9001035300',69.0,1,1,1,1,1.0,0.0,1.05,0.9,1.05,0.9
180,'9001035400',69.0,1,1,1,1,1.0,0.0,1.05,0.9,1.05,0.9
181,'9001042500',69.0,1,1,1,1,1.0,0.0,1.05,0.9,1.05,0.9
182,'9001042600',69.0,1,1,1,1,1.0,0.0,1.05,0.9,1.05,0.9
183,'9001042700',69.0,1,1,1,1,1.0,0.0,1.05,0.9,1.05,0.9
184,'9001042800',69.0,1,1,1,1,1.0,0.0,1.05,0.9,1.05,0.9
185,'9001042900',69.0,1,1,1,1,1.0,0.0,1.05,0.9,1.05,0.9
186,'9001043000',69.0,1,1,1,1,1.0,0.0,1.05,0.9,1.05,0.9
187,'9001043100',69.0,1,1,1,1,1.0,0.0,1.05,0.9,1.05,0.9
188,'9001043200',69.0,1,1,1,1,1.0,0.0,1.05,0.9,1.05,0.9
189,'9001043300',69.0,1,1,1,1,1.0,0.0,1.05,0.9,1.05,0.9
190,'9001043400',69.0,1,1,1,1,1.0,0.0,1.05,0.9,1.05,0.9
191,'9001043500',69.0,1,1,1,1,1.0,0.0,1.05,0.9,1.05,0.9
192,'9001043600',69.0,1,1,1,1,1.0,0.0,1.05,0.9,1.05,0.9
193,'9001043700',69.0,1,1,1,1,1.0,0.0,1.05,0.9,1.05,0.9
194,'9001043800',69.0,1,1,1,1,1.0,0.0,1.05,0.9,1.05,0.9
195,'9001043900',69.0,1,1,1,1,1.0,0.0,1.05,0.9,1.05,0.9
196,'9001044000',69.0,1,1,1,1,1.0,0.0,1.05,0.9,1.05,0.9
197,'9001044100',69.0,1,1,1,1,1.0,0.0,1.05,0.9,1.05,0.9
198,'9001044200',69.0,1,1,1,1,1.0,0.0,1.05,0.9,1.05,0.9
199,'9001044300',69.0,1,1,1,1,1.0,0.0,1.05,0.9,1.05,0.9
200,'9001044400',69.0,1,1,1,1,1.0,0.0,1.05,0.9,1.05,0.9
...
0 / END OF BUS DATA BEGIN LOAD DATA
1,'1',1,1,1,0.0,0.0,0.0,0.0,0.0,0.0,1,1,0
2,'1',1,1,1,0.0,0.0,0.0,0.0,0.0,0.0,1,1,0
3,'1',1,1,1,0.0,0.0,0.0,0.0,0.0,0.0,1,1,0
4,'1',1,1,1,0.0,0.0,0.0,0.0,0.0,0.0,1,1,0
5,'1',1,1,1,0.0,0.0,0.0,0.0,0.0,0.0,1,1,0
6,'1',1,1,1,0.0,0.0,0.0,0.0,0.0,0.0,1,1,0
7,'1',1,1,1,0.0,0.0,0.0,0.0,0.0,0.0,1,1,0
8,'1',1,1,1,0.0,0.0,0.0,0.0,0.0,0.0,1,1,0
9,'1',1,1,1,0.0,0.0,0.0,0.0,0.0,0.0,1,1,0
10,'1',1,1,1,0.0,0.0,0.0,0.0,0.0,0.0,1,1,0
11,'1',1,1,1,0.0,0.0,0.0,0.0,0.0,0.0,1,1,0
12,'1',1,1,1,0.0,0.0,0.0,0.0,0.0,0.0,1,1,0
13,'1',1,1,1,0.0,0.0,0.0,0.0,0.0,0.0,1,1,0
14,'1',1,1,1,0.0,0.0,0.0,0.0,0.0,0.0,1,1,0
15,'1',1,1,1,0.0,0.0,0.0,0.0,0.0,0.0,1,1,0
16,'1',1,1,1,0.0,0.0,0.0,0.0,0.0,0.0,1,1,0
17,'1',1,1,1,0.0,0.0,0.0,0.0,0.0,0.0,1,1,0
18,'1',1,1,1,0.0,0.0,0.0,0.0,0.0,0.0,1,1,0
19,'1',1,1,1,0.0,0.0,0.0,0.0,0.0,0.0,1,1,0
20,'1',1,1,1,0.0,0.0,0.0,0.0,0.0,0.0,1,1,0
21,'1',1,1,1,0.0,0.0,0.0,0.0,0.0,0.0,1,1,0
22,'1',1,1,1,0.0,0.0,0.0,0.0,0.0,0.0,1,1,0
23,'1',1,1,1,0.0,0.0,0.0,0.0,0.0,0.0,1,1,0
24,'1',1,1,1,0.0,0.0,0.0,0.0,0.0,0.0,1,1,0
25,'1',1,1,1,0.0,0.0,0.0,0.0,0.0,0.0,1,1,0
26,'1',1,1,1,0.0,0.0,0.0,0.0,0.0,0.0,1,1,0
27,'1',1,1,1,0.0,0.0,0.0,0.0,0.0,0.0,1,1,0
28,'1',1,1,1,0.0,0.0,0.0,0.0,0.0,0.0,1,1,0
29,'1',1,1,1,0.0,0.0,0.0,0.0,0.0,0.0,1,1,0
30,'1',1,1,1,0.0,0.0,0.0,0.0,0.0,0.0,1,1,0
31,'1',1,1,1,0.0,0.0,0.0,0.0,0.0,0.0,1,1,0
32,'1',1,1,1,0.0,0.0,0.0,0.0,0.0,0.0,1,1,0
33,'1',1,1,1,0.0,0.0,0.0,0.0,0.0,0.0,1,1,0
34,'1',1,1,1,0.0,0.0,0.0,0.0,0.0,0.0,1,1,0
35,'1',1,1,1,0.0,0.0,0.0,0.0,0.0,0.0,1,1,0
36,'1',1,1,1,0.0,0.0,0.0,0.0,0.0,0.0,1,1,0
37,'1',1,1,1,0.0,0.0,0.0,0.0,0.0,0.0,1,1,0
38,'1',1,1,1,0.0,0.0,0.0,0.0,0.0,0.0,1,1,0
39,'1',1,1,1,0.0,0.0,0.0,0.0,0.0,0.0,1,1,0
40,'1',1,1,1,0.0,0.0,0.0,0.0,0.0,0.0,1,1,0
41,'1',1,1,1,0.0,0.0,0.0,0.0,0.0,0.0,1,1,0
42,'1',1,1,1,0.0,0.0,0.0,0.0,0.0,0.0,1,1,0
43,'1',1,1,1,0.0,0.0,0.0,0.0,0.0,0.0,1,1,0
44,'1',1,1,1,0.0,0.0,0.0,0.0,0.0,0.0,1,1,0
45,'1',1,1,1,0.0,0.0,0.0,0.0,0.0,0.0,1,1,0
46,'1',1,1,1,0.0,0.0,0.0,0.0,0.0,0.0,1,1,0
47,'1',1,1,1,0.0,0.0,0.0,0.0,0.0,0.0,1,1,0
48,'1',1,1,1,0.0,0.0,0.0,0.0,0.0,0.0,1,1,0
49,'1',1,1,1,0.0,0.0,0.0,0.0,0.0,0.0,1,1,0
50,'1',1,1,1,0.0,0.0,0.0,0.0,0.0,0.0,1,1,0
51,'1',1,1,1,0.0,0.0,0.0,0.0,0.0,0.0,1,1,0
52,'1',1,1,1,0.0,0.0,0.0,0.0,0.0,0.0,1,1,0
53,'1',1,1,1,0.0,0.0,0.0,0.0,0.0,0.0,1,1,0
54,'1',1,1,1,0.0,0.0,0.0,0.0,0.0,0.0,1,1,0
55,'1',1,1,1,0.0,0.0,0.0,0.0,0.0,0.0,1,1,0
56,'1',1,1,1,0.0,0.0,0.0,0.0,0.0,0.0,1,1,0
57,'1',1,1,1,0.0,0.0,0.0,0.0,0.0,0.0,1,1,0
58,'1',1,1,1,0.0,0.0,0.0,0.0,0.0,0.0,1,1,0
59,'1',1,1,1,0.0,0.0,0.0,0.0,0.0,0.0,1,1,0
60,'1',1,1,1,0.0,0.0,0.0,0.0,0.0,0.0,1,1,0
61,'1',1,1,1,0.0,0.0,0.0,0.0,0.0,0.0,1,1,0
62,'1',1,1,1,0.0,0.0,0.0,0.0,0.0,0.0,1,1,0
63,'1',1,1,1,0.0,0.0,0.0,0.0,0.0,0.0,1,1,0
64,'1',1,1,1,0.0,0.0,0.0,0.0,0.0,0.0,1,1,0
65,'1',1,1,1,0.0,0.0,0.0,0.0,0.0,0.0,1,1,0
66,'1',1,1,1,0.0,0.0,0.0,0.0,0.0,0.0,1,1,0
67,'1',1,1,1,0.0,0.0,0.0,0.0,0.0,0.0,1,1,0
68,'1',1,1,1,0.0,0.0,0.0,0.0,0.0,0.0,1,1,0
69,'1',1,1,1,0.0,0.0,0.0,0.0,0.0,0.0,1,1,0
70,'1',1,1,1,0.0,0.0,0.0,0.0,0.0,0.0,1,1,0
71,'1',1,1,1,0.0,0.0,0.0,0.0,0.0,0.0,1,1,0
72,'1',1,1,1,0.0,0.0,0.0,0.0,0.0,0.0,1,1,0
73,'1',1,1,1,0.0,0.0,0.0,0.0,0.0,0.0,1,1,0
74,'1',1,1,1,0.0,0.0,0.0,0.0,0.0,0.0,1,1,0
75,'1',1,1,1,0.0,0.0,0.0,0.0,0.0,0.0,1,1,0
76,'1',1,1,1,0.0,0.0,0.0,0.0,0.0,0.0,1,1,0
77,'1',1,1,1,0.0,0.0,0.0,0.0,0.0,0.0,1,1,0
78,'1',1,1,1,0.0,0.0,0.0,0.0,0.0,0.0,1,1,0
79,'1',1,1,1,0.0,0.0,0.0,0.0,0.0,0.0,1,1,0
80,'1',1,1,1,0.0,0.0,0.0,0.0,0.0,0.0,1,1,0
81,'1',1,1,1,0.0,0.0,0.0,0.0,0.0,0.0,1,1,0
82,'1',1,1,1,0.0,0.0,0.0,0.0,0.0,0.0,1,1,0
83,'1',1,1,1,0.0,0.0,0.0,0.0,0.0,0.0,1,1,0
84,'1',1,1,1,0.0,0.0,0.0,0.0,0.0,0.0,1,1,0
85,'1',1,1,1,0.0,0.0,0.0,0.0,0.0,0.0,1,1,0
86,'1',1,1,1,0.0,0.0,0.0,0.0,0.0,0.0,1,1,0
87,'1',1,1,1,0.0,0.0,0.0,0.0,0.0,0.0,1,1,0
88,'1',1,1,1,0.0,0.0,0.0,0.0,0.0,0.0,1,1,0
89,'1',1,1,1,0.0,0.0,0.0,0.0,0.0,0.0,1,1,0
90,'1',1,1,1,0.0,0.0,0.0,0.0,0.0,0.0,1,1,0
91,'1',1,1,1,0.0,0.0,0.0,0.0,0.0,0.0,1,1,0
92,'1',1,1,1,0.0,0.0,0.0,0.0,0.0,0.0,1,1,0
93,'1',1,1,1,0.0,0.0,0.0,0.0,0.0,0.0,1,1,0
94,'1',1,1,1,0.0,0.0,0.0,0.0,0.0,0.0,1,1,0
95,'1',1,1,1,0.0,0.0,0.0,0.0,0.0,0.0,1,1,0
96,'1',1,1,1,0.0,0.0,0.0,0.0,0.0,0.0,1,1,0
97,'1',1,1,1,0.0,0.0,0.0,0.0,0.0,0.0,1,1,0
98,'1',1,1,1,0.0,0.0,0.0,0.0,0.0,0.0,1,1,0
99,'1',1,1,1,0.0,0.0,0.0,0.0,0.0,0.0,1,1,0
100,'1',1,1,1,0.0,0.0,0.0,0.0,0.0,0.0,1,1,0
101,'1',1,1,1,0.0,0.0,0.0,0.0,0.0,0.0,1,1,0
102,'1',1,1,1,0.0,0.0,0.0,0.0,0.0,0.0,1,1,0
103,'1',1,1,1,0.0,0.0,0.0,0.0,0.0,0.0,1,1,0
104,'1',1,1,1,0.0,0.0,0.0,0.0,0.0,0.0,1,1,0
105,'1',1,1,1,0.0,0.0,0.0,0.0,0.0,0.0,1,1,0
106,'1',1,1,1,0.0,0.0,0.0,0.0,0.0,0.0,1,1,0
107,'1',1,1,1,0.0,0.0,0.0,0.0,0.0,0.0,1,1,0
108,'1',1,1,1,0.0,0.0,0.0,0.0,0.0,0.0,1,1,0
109,'1',1,1,1,0.0,0.0,0.0,0.0,0.0,0.0,1,1,0
110,'1',1,1,1,0.0,0.0,0.0,0.0,0.0,0.0,1,1,0
111,'1',1,1,1,0.0,0.0,0.0,0.0,0.0,0.0,1,1,0
112,'1',1,1,1,0.0,0.0,0.0,0.0,0.0,0.0,1,1,0
113,'1',1,1,1,0.0,0.0,0.0,0.0,0.0,0.0,1,1,0
114,'1',1,1,1,0.0,0.0,0.0,0.0,0.0,0.0,1,1,0
115,'1',1,1,1,0.0,0.0,0.0,0.0,0.0,0.0,1,1,0
116,'1',1,1,1,0.0,0.0,0.0,0.0,0.0,0.0,1,1,0
117,'1',1,1,1,0.0,0.0,0.0,0.0,0.0,0.0,1,1,0
118,'1',1,1,1,0.0,0.0,0.0,0.0,0.0,0.0,1,1,0
119,'1',1,1,1,0.0,0.0,0.0,0.0,0.0,0.0,1,1,0
120,'1',1,1,1,0.0,0.0,0.0,0.0,0.0,0.0,1,1,0
121,'1',1,1,1,0.0,0.0,0.0,0.0,0.0,0.0,1,1,0
122,'1',1,1,1,0.0,0.0,0.0,0.0,0.0,0.0,1,1,0
123,'1',1,1,1,0.0,0.0,0.0,0.0,0.0,0.0,1,1,0
124,'1',1,1,1,0.0,0.0,0.0,0.0,0.0,0.0,1,1,0
125,'1',1,1,1,0.0,0.0,0.0,0.0,0.0,0.0,1,1,0
126,'1',1,1,1,0.0,0.0,0.0,0.0,0.0,0.0,1,1,0
127,'1',1,1,1,0.0,0.0,0.0,0.0,0.0,0.0,1,1,0
128,'1',1,1,1,0.0,0.0,0.0,0.0,0.0,0.0,1,1,0
129,'1',1,1,1,0.0,0.0,0.0,0.0,0.0,0.0,1,1,0
130,'1',1,1,1,0.0,0.0,0.0,0.0,0.0,0.0,1,1,0
131,'1',1,1,1,0.0,0.0,0.0,0.0,0.0,0.0,1,1,0
132,'1',1,1,1,6.04,2.174,0.0,0.0,0.0,0.0,1,1,0
133,'1',1,1,1,5.09,0.731,0.0,0.0,0.0,0.0,1,1,0
134,'1',1,1,1,8.531,0.858,0.0,0.0,0.0,0.0,1,1,0
135,'1',1,1,1,4.563,0.663,0.0,0.0,0.0,0.0,1,1,0
136,'1',1,1,1,11.135,1.989,0.0,0.0,0.0,0.0,1,1,0
137,'1',1,1,1,4.504,0.653,0.0,0.0,0.0,0.0,1,1,0
138,'1',1,1,1,7.244,0.731,0.0,0.0,0.0,0.0,1,1,0
139,'1',1,1,1,8.853,0.897,0.0,0.0,0.0,0.0,1,1,0
140,'1',1,1,1,4.456,0.448,0.0,0.0,0.0,0.0,1,1,0
141,'1',1,1,1,7.595,1.092,0.0,0.0,0.0,0.0,1,1,0
142,'1',1,1,1,4.144,0.741,0.0,0.0,0.0,0.0,1,1,0
143,'1',1,1,1,7.761,0.78,0.0,0.0,0.0,0.0,1,1,0
144,'1',1,1,1,7.215,1.287,0.0,0.0,0.0,0.0,1,1,0
145,'1',1,1,1,5.684,1.014,0.0,0.0,0.0,0.0,1,1,0
146,'1',1,1,1,3.559,0.517,0.0,0.0,0.0,0.0,1,1,0
147,'1',1,1,1,13.299,1.921,0.0,0.0,0.0,0.0,1,1,0
148,'1',1,1,1,3.139,0.322,0.0,0.0,0.0,0.0,1,1,0
149,'1',1,1,1,3.18,0.887,0.0,0.0,0.0,0.0,1,1,0
150,'1',1,1,1,3.286,0.478,0.0,0.0,0.0,0.0,1,1,0
151,'1',1,1,1,4.173,0.419,0.0,0.0,0.0,0.0,1,1,0
152,'1',1,1,1,7.03,1.258,0.0,0.0,0.0,0.0,1,1,0
153,'1',1,1,1,6.045,1.082,0.0,0.0,0.0,0.0,1,1,0
154,'1',1,1,1,6.25,0.634,0.0,0.0,0.0,0.0,1,1,0
155,'1',1,1,1,7.059,1.014,0.0,0.0,0.0,0.0,1,1,0
156,'1',1,1,1,3.452,0.351,0.0,0.0,0.0,0.0,1,1,0
157,'1',1,1,1,8.151,1.18,0.0,0.0,0.0,0.0,1,1,0
158,'1',1,1,1,6.367,0.917,0.0,0.0,0.0,0.0,1,1,0
159,'1',1,1,1,15.229,2.194,0.0,0.0,0.0,0.0,1,1,0
160,'1',1,1,1,34.544,6.172,0.0,0.0,0.0,0.0,1,1,0
161,'1',1,1,1,8.414,1.501,0.0,0.0,0.0,0.0,1,1,0
162,'1',1,1,1,22.942,2.321,0.0,0.0,0.0,0.0,1,1,0
163,'1',1,1,1,12.607,2.252,0.0,0.0,0.0,0.0,1,1,0
164,'1',1,1,1,5.333,0.955,0.0,0.0,0.0,0.0,1,1,0
165,'1',1,1,1,8.736,1.56,0.0,0.0,0.0,0.0,1,1,0
166,'1',1,1,1,4.865,0.488,0.0,0.0,0.0,0.0,1,1,0
167,'1',1,1,1,3.92,0.702,0.0,0.0,0.0,0.0,1,1,0
168,'1',1,1,1,13.709,1.385,0.0,0.0,0.0,0.0,1,1,0
169,'1',1,1,1,12.11,1.745,0.0,0.0,0.0,0.0,1,1,0
170,'1',1,1,1,24.638,2.486,0.0,0.0,0.0,0.0,1,1,0
171,'1',1,1,1,2.038,0.292,0.0,0.0,0.0,0.0,1,1,0
172,'1',1,1,1,5.324,0.536,0.0,0.0,0.0,0.0,1,1,0
173,'1',1,1,1,6.474,0.653,0.0,0.0,0.0,0.0,1,1,0
174,'1',1,1,1,3.627,0.526,0.0,0.0,0.0,0.0,1,1,0
175,'1',1,1,1,5.762,0.585,0.0,0.0,0.0,0.0,1,1,0
176,'1',1,1,1,5.304,0.77,0.0,0.0,0.0,0.0,1,1,0
177,'1',1,1,1,18.71,2.701,0.0,0.0,0.0,0.0,1,1,0
178,'1',1,1,1,2.827,0.283,0.0,0.0,0.0,0.0,1,1,0
179,'1',1,1,1,8.034,1.433,0.0,0.0,0.0,0.0,1,1,0
180,'1',1,1,1,4.329,0.624,0.0,0.0,0.0,0.0,1,1,0
181,'1',1,1,1,3.871,0.556,0.0,0.0,0.0,0.0,1,1,0
182,'1',1,1,1,9.126,1.316,0.0,0.0,0.0,0.0,1,1,0
183,'1',1,1,1,9.662,1.394,0.0,0.0,0.0,0.0,1,1,0
184,'1',1,1,1,4.856,0.868,0.0,0.0,0.0,0.0,1,1,0
185,'1',1,1,1,1.404,0.146,0.0,0.0,0.0,0.0,1,1,0
186,'1',1,1,1,4.504,0.653,0.0,0.0,0.0,0.0,1,1,0
187,'1',1,1,1,8.892,1.589,0.0,0.0,0.0,0.0,1,1,0
188,'1',1,1,1,3.559,0.361,0.0,0.0,0.0,0.0,1,1,0
189,'1',1,1,1,2.72,0.39,0.0,0.0,0.0,0.0,1,1,0
190,'1',1,1,1,7.595,1.355,0.0,0.0,0.0,0.0,1,1,0
191,'1',1,1,1,4.085,0.41,0.0,0.0,0.0,0.0,1,1,0
192,'1',1,1,1,2.623,0.263,0.0,0.0,0.0,0.0,1,1,0
193,'1',1,1,1,8.492,0.858,0.0,0.0,0.0,0.0,1,1,0
194,'1',1,1,1,12.363,1.248,0.0,0.0,0.0,0.0,1,1,0
195,'1',1,1,1,4.651,0.829,0.0,0.0,0.0,0.0,1,1,0
196,'1',1,1,1,5.324,0.77,0.0,0.0,0.0,0.0,1,1,0
197,'1',1,1,1,4.992,0.887,0.0,0.0,0.0,0.0,1,1,0
198,'1',1,1,1,7.381,1.316,0.0,0.0,0.0,0.0,1,1,0
199,'1',1,1,1,3.89,0.565,0.0,0.0,0.0,0.0,1,1,0
200,'1',1,1,1,9.643,1.726,0.0,0.0,0.0,0.0,1,1,0
...
0 / END OF LOAD DATA BEGIN FIXED SHUNT DATA
0 / END OF FIXED SHUNT DATA BEGIN GENERATOR DATA
2,'1',0.0,0.0,222.8,-153.3,1.02,0,100.0,0.0,1.0,0.0,0.0,1.0,1,100.0,460.0,100.0,1,1.0,0,1.0,0,1.0,0,1.0,0,1.0
11,'1',0.0,0.0,41.5,-22.3,1.02,0,100.0,0.0,1.0,0.0,0.0,1.0,1,100.0,67.0,10.0,1,1.0,0,1.0,0,1.0,0,1.0,0,1.0
19,'1',0.0,0.0,23.1,-12.4,1.02,0,100.0,0.0,1.0,0.0,0.0,1.0,1,100.0,37.2,35.0,1,1.0,0,1.0,0,1.0,0,1.0,0,1.0
20,'1',0.0,0.0,0.0,0.0,1.02,0,100.0,0.0,1.0,0.0,0.0,1.0,1,100.0,31.3,6.0,1,1.0,0,1.0,0,1.0,0,1.0,0,1.0
21,'1',0.0,0.0,4.25,-2.55,1.02,0,100.0,0.0,1.0,0.0,0.0,1.0,1,100.0,7.63,0.8,1,1.0,0,1.0,0,1.0,0,1.0,0,1.0
21,'2',0.0,0.0,4.25,-2.55,1.02,0,100.0,0.0,1.0,0.0,0.0,1.0,1,100.0,7.63,0.8,1,1.0,0,1.0,0,1.0,0,1.0,0,1.0
21,'3',0.0,0.0,4.25,-2.55,1.02,0,100.0,0.0,1.0,0.0,0.0,1.0,1,100.0,7.63,0.8,1,1.0,0,1.0,0,1.0,0,1.0,0,1.0
21,'4',0.0,0.0,4.25,-2.55,1.02,0,100.0,0.0,1.0,0.0,0.0,1.0,1,100.0,7.63,0.8,1,1.0,0,1.0,0,1.0,0,1.0,0,1.0
24,'1',0.0,0.0,5.2,-5.2,1.02,0,100.0,0.0,1.0,0.0,0.0,1.0,1,100.0,25.7,9.8,1,1.0,0,1.0,0,1.0,0,1.0,0,1.0
25,'1',0.0,0.0,18.0,-8.0,1.02,0,100.0,0.0,1.0,0.0,0.0,1.0,1,100.0,24.0,23.0,1,1.0,0,1.0,0,1.0,0,1.0,0,1.0
26,'1',0.0,0.0,14.4,-7.7,1.02,0,100.0,0.0,1.0,0.0,0.0,1.0,1,100.0,23.2,15.0,1,1.0,0,1.0,0,1.0,0,1.0,0,1.0
26,'2',0.0,0.0,14.4,-7.7,1.02,0,100.0,0.0,1.0,0.0,0.0,1.0,1,100.0,23.2,15.0,1,1.0,0,1.0,0,1.0,0,1.0,0,1.0
26,'3',0.0,0.0,14.4,-7.7,1.02,0,100.0,0.0,1.0,0.0,0.0,1.0,1,100.0,23.2,15.0,1,1.0,0,1.0,0,1.0,0,1.0,0,1.0
27,'1',0.0,0.0,13.5,-7.3,1.02,0,100.0,0.0,1.0,0.0,0.0,1.0,1,100.0,21.8,17.4,1,1.0,0,1.0,0,1.0,0,1.0,0,1.0
29,'1',0.0,0.0,13.5,-7.3,1.02,0,100.0,0.0,1.0,0.0,0.0,1.0,1,100.0,21.8,17.4,1,1.0,0,1.0,0,1.0,0,1.0,0,1.0
30,'1',0.0,0.0,14.6,-6.7,1.02,0,100.0,0.0,1.0,0.0,0.0,1.0,1,100.0,20.2,7.4,1,1.0,0,1.0,0,1.0,0,1.0,0,1.0
31,'1',0.0,0.0,12.4,-6.7,1.02,0,100.0,0.0,1.0,0.0,0.0,1.0,1,100.0,20.0,19.6,1,1.0,0,1.0,0,1.0,0,1.0,0,1.0
31,'2',0.0,0.0,12.4,-6.7,1.02,0,100.0,0.0,1.0,0.0,0.0,1.0,1,100.0,20.0,19.1,1,1.0,0,1.0,0,1.0,0,1.0,0,1.0
31,'3',0.0,0.0,15.5,-8.3,1.02,0,100.0,0.0,1.0,0.0,0.0,1.0,1,100.0,25.0,19.1,1,1.0,0,1.0,0,1.0,0,1.0,0,1.0
31,'4',0.0,0.0,15.5,-8.3,1.02,0,100.0,0.0,1.0,0.0,0.0,1.0,1,100.0,25.0,19.1,1,1.0,0,1.0,0,1.0,0,1.0,0,1.0
31,'5',0.0,0.0,15.5,-8.3,1.02,0,100.0,0.0,1.0,0.0,0.0,1.0,1,100.0,25.0,18.7,1,1.0,0,1.0,0,1.0,0,1.0,0,1.0
50,'1',0.0,0.0,33.4,-23.0,1.02,0,100.0,0.0,1.0,0.0,0.0,1.0,1,100.0,69.0,5.0,1,1.0,0,1.0,0,1.0,0,1.0,0,1.0
53,'1',0.0,0.0,35.9,-19.3,1.02,0,100.0,0.0,1.0,0.0,0.0,1.0,1,100.0,57.9,45.0,1,1.0,0,1.0,0,1.0,0,1.0,0,1.0
53,'2',0.0,0.0,16.8,-9.0,1.02,0,100.0,0.0,1.0,0.0,0.0,1.0,1,100.0,27.1,10.0,1,1.0,0,1.0,0,1.0,0,1.0,0,1.0
55,'1',0.0,0.0,22.3,-15.3,1.02,0,100.0,0.0,1.0,0.0,0.0,1.0,1,100.0,46.0,4.1,1,1.0,0,1.0,0,1.0,0,1.0,0,1.0
57,'1',0.0,0.0,8.8,-4.73,1.02,0,100.0,0.0,1.0,0.0,0.0,1.0,1,100.0,14.2,5.0,1,1.0,0,1.0,0,1.0,0,1.0,0,1.0
57,'2',0.0,0.0,8.8,-4.73,1.02,0,100.0,0.0,1.0,0.0,0.0,1.0,1,100.0,14.2,5.0,1,1.0,0,1.0,0,1.0,0,1.0,0,1.0
57,'3',0.0,0.0,8.8,-4.73,1.02,0,100.0,0.0,1.0,0.0,0.0,1.0,1,100.0,14.2,5.0,1,1.0,0,1.0,0,1.0,0,1.0,0,1.0
62,'1',0.0,0.0,8.27,-3.67,1.02,0,100.0,0.0,1.0,0.0,0.0,1.0,1,100.0,11.0,2.33,1,1.0,0,1.0,0,1.0,0,1.0,0,1.0
62,'2',0.0,0.0,8.27,-3.67,1.02,0,100.0,0.0,1.0,0.0,0.0,1.0,1,100.0,11.0,2.33,1,1.0,0,1.0,0,1.0,0,1.0,0,1.0
62,'3',0.0,0.0,8.27,-3.67,1.02,0,100.0,0.0,1.0,0.0,0.0,1.0,1,100.0,11.0,2.33,1,1.0,0,1.0,0,1.0,0,1.0,0,1.0
63,'1',0.0,0.0,8.13,-3.6,1.02,0,100.0,0.0,1.0,0.0,0.0,1.0,1,100.0,10.83,1.0,1,1.0,0,1.0,0,1.0,0,1.0,0,1.0
63,'2',0.0,0.0,8.13,-3.6,1.02,0,100.0,0.0,1.0,0.0,0.0,1.0,1,100.0,10.83,1.0,1,1.0,0,1.0,0,1.0,0,1.0,0,1.0
63,'3',0.0,0.0,8.13,-3.6,1.02,0,100.0,0.0,1.0,0.0,0.0,1.0,1,100.0,10.83,1.0,1,1.0,0,1.0,0,1.0,0,1.0,0,1.0
65,'1',0.0,0.0,4.22,-2.27,1.02,0,100.0,0.0,1.0,0.0,0.0,1.0,1,100.0,6.8,2.0,1,1.0,0,1.0,0,1.0,0,1.0,0,1.0
65,'10',0.0,0.0,6.8,-3.65,1.02,0,100.0,0.0,1.0,0.0,0.0,1.0,1,100.0,11.0,1.0,1,1.0,0,1.0,0,1.0,0,1.0,0,1.0
65,'2',0.0,0.0,4.22,-2.27,1.02,0,100.0,0.0,1.0,0.0,0.0,1.0,1,100.0,6.8,2.0,1,1.0,0,1.0,0,1.0,0,1.0,0,1.0
65,'3',0.0,0.0,4.22,-2.27,1.02,0,100.0,0.0,1.0,0.0,0.0,1.0,1,100.0,6.8,2.0,1,1.0,0,1.0,0,1.0,0,1.0,0,1.0
65,'4',0.0,0.0,4.22,-2.27,1.02,0,100.0,0.0,1.0,0.0,0.0,1.0,1,100.0,6.8,2.0,1,1.0,0,1.0,0,1.0,0,1.0,0,1.0
65,'5',0.0,0.0,4.22,-2.27,1.02,0,100.0,0.0,1.0,0.0,0.0,1.0,1,100.0,6.8,2.0,1,1.0,0,1.0,0,1.0,0,1.0,0,1.0
65,'6',0.0,0.0,4.22,-2.27,1.02,0,100.0,0.0,1.0,0.0,0.0,1.0,1,100.0,6.8,2.0,1,1.0,0,1.0,0,1.0,0,1.0,0,1.0
65,'7',0.0,0.0,7.75,-4.15,1.02,0,100.0,0.0,1.0,0.0,0.0,1.0,1,100.0,12.5,6.0,1,1.0,0,1.0,0,1.0,0,1.0,0,1.0
65,'8',0.0,0.0,7.75,-4.15,1.02,0,100.0,0.0,1.0,0.0,0.0,1.0,1,100.0,12.5,6.0,1,1.0,0,1.0,0,1.0,0,1.0,0,1.0
65,'9',0.0,0.0,6.8,-3.65,1.02,0,100.0,0.0,1.0,0.0,0.0,1.0,1,100.0,11.0,1.0,1,1.0,0,1.0,0,1.0,0,1.0,0,1.0
66,'1',0.0,0.0,18.5,-8.2,1.02,0,100.0,0.0,1.0,0.0,0.0,1.0,1,100.0,24.7,19.0,1,1.0,0,1.0,0,1.0,0,1.0,0,1.0
68,'1',0.0,0.0,0.0,0.0,1.02,0,100.0,0.0,1.0,0.0,0.0,1.0,1,100.0,7.63,0.1,1,1.0,0,1.0,0,1.0,0,1.0,0,1.0
68,'2',0.0,0.0,0.0,0.0,1.02,0,100.0,0.0,1.0,0.0,0.0,1.0,1,100.0,7.63,0.1,1,1.0,0,1.0,0,1.0,0,1.0,0,1.0
68,'3',0.0,0.0,0.0,0.0,1.02,0,100.0,0.0,1.0,0.0,0.0,1.0,1,100.0,7.63,0.1,1,1.0,0,1.0,0,1.0,0,1.0,0,1.0
70,'1',0.0,0.0,10.3,-7.1,1.02,0,100.0,0.0,1.0,0.0,0.0,1.0,1,100.0,21.2,14.0,1,1.0,0,1.0,0,1.0,0,1.0,0,1.0
71,'1',0.0,0.0,13.1,-7.0,1.02,0,100.0,0.0,1.0,0.0,0.0,1.0,1,100.0,21.1,15.0,1,1.0,0,1.0,0,1.0,0,1.0,0,1.0
73,'1',0.0,0.0,5.75,-3.35,1.02,0,100.0,0.0,1.0,0.0,0.0,1.0,1,100.0,10.0,2.85,1,1.0,0,1.0,0,1.0,0,1.0,0,1.0
73,'2',0.0,0.0,5.75,-3.35,1.02,0,100.0,0.0,1.0,0.0,0.0,1.0,1,100.0,10.0,2.85,1,1.0,0,1.0,0,1.0,0,1.0,0,1.0
76,'1',0.0,0.0,111.2,-59.8,1.02,0,100.0,0.0,1.0,0.0,0.0,1.0,1,100.0,179.4,85.0,1,1.0,0,1.0,0,1.0,0,1.0,0,1.0
76,'2',0.0,0.0,58.9,-31.7,1.02,0,100.0,0.0,1.0,0.0,0.0,1.0,1,100.0,95.1,45.0,1,1.0,0,1.0,0,1.0,0,1.0,0,1.0
79,'1',0.0,0.0,52.6,-34.2,1.02,0,100.0,0.0,1.0,0.0,0.0,1.0,1,100.0,102.6,5.0,1,1.0,0,1.0,0,1.0,0,1.0,0,1.0
87,'1',0.0,0.0,3.6,-2.47,1.02,0,100.0,0.0,1.0,0.0,0.0,1.0,1,100.0,7.42,4.17,1,1.0,0,1.0,0,1.0,0,1.0,0,1.0
87,'2',0.0,0.0,3.6,-2.47,1.02,0,100.0,0.0,1.0,0.0,0.0,1.0,1,100.0,7.42,4.17,1,1.0,0,1.0,0,1.0,0,1.0,0,1.0
87,'3',0.0,0.0,3.6,-2.47,1.02,0,100.0,0.0,1.0,0.0,0.0,1.0,1,100.0,7.42,4.17,1,1.0,0,1.0,0,1.0,0,1.0,0,1.0
87,'4',0.0,0.0,3.6,-2.47,1.02,0,100.0,0.0,1.0,0.0,0.0,1.0,1,100.0,7.42,4.17,1,1.0,0,1.0,0,1.0,0,1.0,0,1.0
87,'5',0.0,0.0,3.6,-2.47,1.02,0,100.0,0.0,1.0,0.0,0.0,1.0,1,100.0,7.42,4.17,1,1.0,0,1.0,0,1.0,0,1.0,0,1.0
87,'6',0.0,0.0,3.6,-2.47,1.02,0,100.0,0.0,1.0,0.0,0.0,1.0,1,100.0,7.42,4.17,1,1.0,0,1.0,0,1.0,0,1.0,0,1.0
88,'1',0.0,0.0,16.6,-16.6,1.02,0,100.0,0.0,1.0,0.0,0.0,1.0,1,100.0,42.0,0.0,1,1.0,0,1.0,0,1.0,0,1.0,1,1.0
91,'1',0.0,0.0,28.1,-12.5,1.02,0,100.0,0.0,1.0,0.0,0.0,1.0,1,100.0,37.5,15.0,1,1.0,0,1.0,0,1.0,0,1.0,0,1.0
92,'1',0.0,0.0,10.85,-5.85,1.02,0,100.0,0.0,1.0,0.0,0.0,1.0,1,100.0,17.5,2.0,1,1.0,0,1.0,0,1.0,0,1.0,0,1.0
92,'2',0.0,0.0,10.85,-5.85,1.02,0,100.0,0.0,1.0,0.0,0.0,1.0,1,100.0,17.5,2.0,1,1.0,0,1.0,0,1.0,0,1.0,0,1.0
95,'1',0.0,0.0,8.85,-4.75,1.02,0,100.0,0.0,1.0,0.0,0.0,1.0,1,100.0,14.25,2.0,1,1.0,0,1.0,0,1.0,0,1.0,0,1.0
95,'2',0.0,0.0,8.85,-4.75,1.02,0,100.0,0.0,1.0,0.0,0.0,1.0,1,100.0,14.25,2.0,1,1.0,0,1.0,0,1.0,0,1.0,0,1.0
97,'1',0.0,0.0,17.0,-9.2,1.02,0,100.0,0.0,1.0,0.0,0.0,1.0,1,100.0,27.5,6.0,1,1.0,0,1.0,0,1.0,0,1.0,0,1.0
101,'1',0.0,0.0,15.7,-8.4,1.02,0,100.0,0.0,1.0,0.0,0.0,1.0,1,100.0,25.3,5.0,1,1.0,0,1.0,0,1.0,0,1.0,0,1.0
102,'1',0.0,0.0,12.1,-8.3,1.02,0,100.0,0.0,1.0,0.0,0.0,1.0,1,100.0,25.0,9.0,1,1.0,0,1.0,0,1.0,0,1.0,0,1.0
102,'2',0.0,0.0,12.1,-8.3,1.02,0,100.0,0.0,1.0,0.0,0.0,1.0,1,100.0,25.0,9.0,1,1.0,0,1.0,0,1.0,0,1.0,0,1.0
102,'3',0.0,0.0,14.5,-10.0,1.02,0,100.0,0.0,1.0,0.0,0.0,1.0,1,100.0,30.0,8.0,1,1.0,0,1.0,0,1.0,0,1.0,0,1.0
104,'1',0.0,0.0,13.6,-7.3,1.02,0,100.0,0.0,1.0,0.0,0.0,1.0,1,100.0,22.0,6.0,1,1.0,0,1.0,0,1.0,0,1.0,0,1.0
112,'1',0.0,0.0,18.8,-8.3,1.02,0,100.0,0.0,1.0,0.0,0.0,1.0,1,100.0,25.0,15.0,1,1.0,0,1.0,0,1.0,0,1.0,0,1.0
113,'1',0.0,0.0,9.5,-9.5,1.02,0,100.0,0.0,1.0,0.0,0.0,1.0,1,100.0,24.0,0.0,1,1.0,0,1.0,0,1.0,0,1.0,1,1.0
114,'1',0.0,0.0,9.7,-6.7,1.02,0,100.0,0.0,1.0,0.0,0.0,1.0,1,100.0,20.0,2.0,1,1.0,0,1.0,0,1.0,0,1.0,0,1.0
123,'1',0.0,0.0,28.8,-19.8,1.02,0,100.0,0.0,1.0,0.0,0.0,1.0,1,100.0,59.5,15.0,1,1.0,0,1.0,0,1.0,0,1.0,0,1.0
126,'1',0.0,0.0,5.6,-5.6,1.03,0,100.0,0.0,1.0,0.0,0.0,1.0,1,100.0,11.87,2.93,1,1.0,0,1.0,0,1.0,0,1.0,0,1.0
126,'2',0.0,0.0,5.6,-5.6,1.03,0,100.0,0.0,1.0,0.0,0.0,1.0,1,100.0,11.87,2.93,1,1.0,0,1.0,0,1.0,0,1.0,0,1.0
126,'3',0.0,0.0,5.6,-5.6,1.03,0,100.0,0.0,1.0,0.0,0.0,1.0,1,100.0,11.87,2.93,1,1.0,0,1.0,0,1.0,0,1.0,0,1.0
128,'1',0.0,0.0,8.4,-3.73,1.02,0,100.0,0.0,1.0,0.0,0.0,1.0,1,100.0,11.2,8.0,1,1.0,0,1.0,0,1.0,0,1.0,0,1.0
128,'2',0.0,0.0,8.4,-3.73,1.02,0,100.0,0.0,1.0,0.0,0.0,1.0,1,100.0,11.2,8.0,1,1.0,0,1.0,0,1.0,0,1.0,0,1.0
128,'3',0.0,0.0,8.4,-3.73,1.02,0,100.0,0.0,1.0,0.0,0.0,1.0,1,100.0,11.2,8.0,1,1.0,0,1.0,0,1.0,0,1.0,0,1.0
129,'1',0.0,0.0,15.8,-8.5,1.02,0,100.0,0.0,1.0,0.0,0.0,1.0,1,100.0,25.5,5.0,1,1.0,0,1.0,0,1.0,0,1.0,0,1.0
75435,'1',0.0,0.0,514.7,-514.7,1.02,0,100.0,0.0,1.0,0.0,0.0,1.0,1,100.0,1000.0,65.0,1,1.0,0,1.0,0,1.0,0,1.0,0,1.0
75435,'2',0.0,0.0,440.7,-303.3,1.02,0,100.0,0.0,1.0,0.0,0.0,1.0,1,100.0,800.0,50.0,1,1.0,0,1.0,0,1.0,0,1.0,0,1.0
75436,'1',0.0,0.0,247.9,-133.3,1.02,0,100.0,0.0,1.0,0.0,0.0,1.0,1,100.0,400.0,130.0,1,1.0,0,1.0,0,1.0,0,1.0,0,1.0
75436,'2',0.0,0.0,101.0,-54.3,1.02,0,100.0,0.0,1.0,0.0,0.0,1.0,1,100.0,163.0,58.68,1,1.0,0,1.0,0,1.0,0,1.0,0,1.0
75437,'1',0.0,0.0,179.1,-96.3,1.02,0,100.0,0.0,1.0,0.0,0.0,1.0,1,100.0,289.0,160.0,1,1.0,0,1.0,0,1.0,0,1.0,0,1.0
75437,'2',0.0,0.0,179.1,-96.3,1.02,0,100.0,0.0,1.0,0.0,0.0,1.0,1,100.0,289.0,160.0,1,1.0,0,1.0,0,1.0,0,1.0,0,1.0
75439,'1',0.0,0.0,173.5,-93.3,1.02,0,100.0,0.0,1.0,0.0,0.0,1.0,1,100.0,280.0,145.0,1,1.0,0,1.0,0,1.0,0,1.0,0,1.0
75439,'2',0.0,0.0,173.5,-93.3,1.02,0,100.0,0.0,1.0,0.0,0.0,1.0,1,100.0,280.0,145.0,1,1.0,0,1.0,0,1.0,0,1.0,0,1.0
75439,'3',0.0,0.0,173.5,-93.3,1.02,0,100.0,0.0,1.0,0.0,0.0,1.0,1,100.0,280.0,145.0,1,1.0,0,1.0,0,1.0,0,1.0,0,1.0
75441,'1',0.0,0.0,111.6,-60.0,1.02,0,100.0,0.0,1.0,0.0,0.0,1.0,1,100.0,180.0,95.4,1,1.0,0,1.0,0,1.0,0,1.0,0,1.0
75441,'2',0.0,0.0,105.4,-56.7,1.02,0,100.0,0.0,1.0,0.0,0.0,1.0,1,100.0,170.0,90.1,1,1.0,0,1.0,0,1.0,0,1.0,0,1.0
75441,'3',0.0,0.0,105.4,-56.7,1.02,0,100.0,0.0,1.0,0.0,0.0,1.0,1,100.0,170.0,90.1,1,1.0,0,1.0,0,1.0,0,1.0,0,1.0
75443,'1',0.0,0.0,148.4,-79.8,1.02,0,100.0,0.0,1.0,0.0,0.0,1.0,1,100.0,239.4,100.0,1,1.0,0,1.0,0,1.0,0,1.0,0,1.0
75443,'2',0.0,0.0,70.4,-37.9,1.02,0,100.0,0.0,1.0,0.0,0.0,1.0,1,100.0,113.6,45.0,1,1.0,0,1.0,0,1.0,0,1.0,0,1.0
75443,'3',0.0,0.0,200.9,-138.3,1.02,0,100.0,0.0,1.0,0.0,0.0,1.0,1,100.0,414.9,125.0,1,1.0,0,1.0,0,1.0,0,1.0,0,1.0
75444,'1',0.0,0.0,72.0,-32.0,1.02,0,100.0,0.0,1.0,0.0,0.0,1.0,1,100.0,96.0,50.0,1,1.0,0,1.0,0,1.0,0,1.0,0,1.0
75445,'1',0.0,0.0,27.6,-27.6,1.02,0,100.0,0.0,1.0,0.0,0.0,1.0,1,100.0,84.0,40.0,1,1.0,0,1.0,0,1.0,0,1.0,0,1.0
75448,'1',0.0,0.0,200.9,-138.3,1.02,0,100.0,0.0,1.0,0.0,0.0,1.0,1,100.0,414.9,125.0,1,1.0,0,1.0,0,1.0,0,1.0,0,1.0
75448,'2',0.0,0.0,56.3,-25.0,1.02,0,100.0,0.0,1.0,0.0,0.0,1.0,1,100.0,75.0,40.0,1,1.0,0,1.0,0,1.0,0,1.0,0,1.0
75450,'1',0.0,0.0,37.5,-20.2,1.02,0,100.0,0.0,1.0,0.0,0.0,1.0,1,100.0,60.5,19.0,1,1.0,0,1.0,0,1.0,0,1.0,0,1.0
75450,'2',0.0,0.0,37.5,-20.2,1.02,0,100.0,0.0,1.0,0.0,0.0,1.0,1,100.0,60.5,19.0,1,1.0,0,1.0,0,1.0,0,1.0,0,1.0
75450,'3',0.0,0.0,37.5,-20.2,1.02,0,100.0,0.0,1.0,0.0,0.0,1.0,1,100.0,60.5,19.0,1,1.0,0,1.0,0,1.0,0,1.0,0,1.0
75450,'4',0.0,0.0,37.5,-20.2,1.02,0,100.0,0.0,1.0,0.0,0.0,1.0,1,100.0,60.5,19.0,1,1.0,0,1.0,0,1.0,0,1.0,0,1.0
75452,'1',0.0,0.0,24.8,-13.3,1.02,0,100.0,0.0,1.0,0.0,0.0,1.0,1,100.0,40.0,15.0,1,1.0,0,1.0,0,1.0,0,1.0,0,1.0
75452,'2',0.0,0.0,34.7,-18.7,1.02,0,100.0,0.0,1.0,0.0,0.0,1.0,1,100.0,56.0,16.0,1,1.0,0,1.0,0,1.0,0,1.0,0,1.0
75453,'1',0.0,0.0,31.6,-17.0,1.02,0,100.0,0.0,1.0,0.0,0.0,1.0,1,100.0,51.0,16.0,1,1.0,0,1.0,0,1.0,0,1.0,0,1.0
75453,'2',0.0,0.0,31.6,-17.0,1.02,0,100.0,0.0,1.0,0.0,0.0,1.0,1,100.0,51.0,16.0,1,1.0,0,1.0,0,1.0,0,1.0,0,1.0
75453,'3',0.0,0.0,31.6,-17.0,1.02,0,100.0,0.0,1.0,0.0,0.0,1.0,1,100.0,51.0,16.0,1,1.0,0,1.0,0,1.0,0,1.0,0,1.0
75453,'4',0.0,0.0,31.6,-17.0,1.02,0,100.0,0.0,1.0,0.0,0.0,1.0,1,100.0,51.0,16.0,1,1.0,0,1.0,0,1.0,0,1.0,0,1.0
75454,'1',0.0,0.0,31.0,-16.7,1.02,0,100.0,0.0,1.0,0.0,0.0,1.0,1,100.0,50.0,2.0,1,1.0,0,1.0,0,1.0,0,1.0,0,1.0
75454,'2',0.0,0.0,31.0,-16.7,1.02,0,100.0,0.0,1.0,0.0,0.0,1.0,1,100.0,50.0,2.0,1,1.0,0,1.0,0,1.0,0,1.0,0,1.0
75454,'3',0.0,0.0,31.0,-16.7,1.02,0,100.0,0.0,1.0,0.0,0.0,1.0,1,100.0,50.0,2.0,1,1.0,0,1.0,0,1.0,0,1.0,0,1.0
75454,'4',0.0,0.0,31.0,-16.7,1.02,0,100.0,0.0,1.0,0.0,0.0,1.0,1,100.0,50.0,2.0,1,1.0,0,1.0,0,1.0,0,1.0,0,1.0
75454,'5',0.0,0.0,31.0,-16.7,1.02,0,100.0,0.0,1.0,0.0,0.0,1.0,1,100.0,50.0,2.0,1,1.0,0,1.0,0,1.0,0,1.0,0,1.0
75455,'1',0.0,0.0,21.8,-15.0,1.02,0,100.0,0.0,1.0,0.0,0.0,1.0,1,100.0,45.0,22.0,1,1.0,0,1.0,0,1.0,0,1.0,0,1.0
75455,'2',0.0,0.0,33.8,-15.0,1.02,0,100.0,0.0,1.0,0.0,0.0,1.0,1,100.0,45.0,22.0,1,1.0,0,1.0,0,1.0,0,1.0,0,1.0
75456,'1',0.0,0.0,21.4,-14.7,1.02,0,100.0,0.0,1.0,0.0,0.0,1.0,1,100.0,44.1,25.0,1,1.0,0,1.0,0,1.0,0,1.0,0,1.0
75456,'2',0.0,0.0,16.5,-11.4,1.02,0,100.0,0.0,1.0,0.0,0.0,1.0,1,100.0,34.1,5.0,1,1.0,0,1.0,0,1.0,0,1.0,0,1.0
75457,'1',0.0,0.0,20.2,-13.9,1.02,0,100.0,0.0,1.0,0.0,0.0,1.0,1,100.0,41.8,10.0,1,1.0,0,1.0,0,1.0,0,1.0,0,1.0
75457,'2',0.0,0.0,20.2,-13.9,1.02,0,100.0,0.0,1.0,0.0,0.0,1.0,1,100.0,41.8,10.0,1,1.0,0,1.0,0,1.0,0,1.0,0,1.0
75457,'3',0.0,0.0,20.2,-13.9,1.02,0,100.0,0.0,1.0,0.0,0.0,1.0,1,100.0,41.8,10.0,1,1.0,0,1.0,0,1.0,0,1.0,0,1.0
75457,'4',0.0,0.0,31.4,-13.9,1.02,0,100.0,0.0,1.0,0.0,0.0,1.0,1,100.0,41.8,10.0,1,1.0,0,1.0,0,1.0,0,1.0,0,1.0
75458,'1',0.0,0.0,3.55,-3.55,1.02,0,100.0,0.0,1.0,0.0,0.0,1.0,1,100.0,7.5,0.6,1,1.0,0,1.0,0,1.0,0,1.0,0,1.0
75458,'2',0.0,0.0,3.55,-3.55,1.02,0,100.0,0.0,1.0,0.0,0.0,1.0,1,100.0,7.5,0.6,1,1.0,0,1.0,0,1.0,0,1.0,0,1.0
75458,'3',0.0,0.0,3.55,-3.55,1.02,0,100.0,0.0,1.0,0.0,0.0,1.0,1,100.0,7.5,0.6,1,1.0,0,1.0,0,1.0,0,1.0,0,1.0
75458,'4',0.0,0.0,3.55,-3.55,1.02,0,100.0,0.0,1.0,0.0,0.0,1.0,1,100.0,7.5,0.6,1,1.0,0,1.0,0,1.0,0,1.0,0,1.0
75459,'1',0.0,0.0,16.0,-8.6,1.02,0,100.0,0.0,1.0,0.0,0.0,1.0,1,100.0,25.8,12.0,1,1.0,0,1.0,0,1.0,0,1.0,0,1.0
75460,'1',0.0,0.0,13.5,-7.3,1.02,0,100.0,0.0,1.0,0.0,0.0,1.0,1,100.0,21.8,16.1,1,1.0,0,1.0,0,1.0,0,1.0,0,1.0
75462,'1',0.0,0.0,190.6,-190.6,1.04,0,100.0,0.0,1.0,0.0,0.0,1.0,1,100.0,580.0,170.0,1,1.0,0,1.0,0,1.0,0,1.0,0,1.0
75462,'2',0.0,0.0,240.3,-240.3,1.04,0,100.0,0.0,1.0,0.0,0.0,1.0,1,100.0,585.0,200.0,1,1.0,0,1.0,0,1.0,0,1.0,0,1.0
75464,'1',0.0,0.0,41.2,-28.3,1.02,0,100.0,0.0,1.0,0.0,0.0,1.0,1,100.0,85.0,55.0,1,1.0,0,1.0,0,1.0,0,1.0,0,1.0
75464,'10',0.0,0.0,43.15,-29.7,1.02,0,100.0,0.0,1.0,0.0,0.0,1.0,1,100.0,89.1,39.27,1,1.0,0,1.0,0,1.0,0,1.0,0,1.0
75464,'11',0.0,0.0,43.15,-29.7,1.02,0,100.0,0.0,1.0,0.0,0.0,1.0,1,100.0,89.1,39.27,1,1.0,0,1.0,0,1.0,0,1.0,0,1.0
75464,'12',0.0,0.0,43.15,-29.7,1.02,0,100.0,0.0,1.0,0.0,0.0,1.0,1,100.0,89.1,39.27,1,1.0,0,1.0,0,1.0,0,1.0,0,1.0
75464,'2',0.0,0.0,41.2,-28.3,1.02,0,100.0,0.0,1.0,0.0,0.0,1.0,1,100.0,85.0,40.0,1,1.0,0,1.0,0,1.0,0,1.0,0,1.0
75464,'3',0.0,0.0,41.2,-28.3,1.02,0,100.0,0.0,1.0,0.0,0.0,1.0,1,100.0,85.0,40.0,1,1.0,0,1.0,0,1.0,0,1.0,0,1.0
75464,'4',0.0,0.0,41.2,-28.3,1.02,0,100.0,0.0,1.0,0.0,0.0,1.0,1,100.0,85.0,40.0,1,1.0,0,1.0,0,1.0,0,1.0,0,1.0
75464,'5',0.0,0.0,41.2,-28.3,1.02,0,100.0,0.0,1.0,0.0,0.0,1.0,1,100.0,85.0,40.0,1,1.0,0,1.0,0,1.0,0,1.0,0,1.0
75464,'6',0.0,0.0,50.9,-35.0,1.02,0,100.0,0.0,1.0,0.0,0.0,1.0,1,100.0,105.0,20.0,1,1.0,0,1.0,0,1.0,0,1.0,0,1.0
75464,'7',0.0,0.0,43.15,-29.7,1.02,0,100.0,0.0,1.0,0.0,0.0,1.0,1,100.0,89.1,39.27,1,1.0,0,1.0,0,1.0,0,1.0,0,1.0
75464,'8',0.0,0.0,43.15,-29.7,1.02,0,100.0,0.0,1.0,0.0,0.0,1.0,1,100.0,89.1,39.27,1,1.0,0,1.0,0,1.0,0,1.0,0,1.0
75464,'9',0.0,0.0,43.15,-29.7,1.02,0,100.0,0.0,1.0,0.0,0.0,1.0,1,100.0,89.1,39.27,1,1.0,0,1.0,0,1.0,0,1.0,0,1.0
75466,'1',0.0,0.0,145.3,-100.0,1.02,0,100.0,0.0,1.0,0.0,0.0,1.0,1,100.0,300.0,45.0,1,1.0,0,1.0,0,1.0,0,1.0,0,1.0
75466,'2',0.0,0.0,145.3,-100.0,1.02,0,100.0,0.0,1.0,0.0,0.0,1.0,1,100.0,300.0,45.0,1,1.0,0,1.0,0,1.0,0,1.0,0,1.0
75468,'1',0.0,0.0,216.8,-96.3,1.02,0,100.0,0.0,1.0,0.0,0.0,1.0,1,100.0,289.0,155.0,1,1.0,0,1.0,0,1.0,0,1.0,0,1.0
75469,'1',0.0,0.0,179.1,-96.3,1.02,0,100.0,0.0,1.0,0.0,0.0,1.0,1,100.0,289.0,150.0,1,1.0,0,1.0,0,1.0,0,1.0,0,1.0
75469,'2',0.0,0.0,179.1,-96.3,1.02,0,100.0,0.0,1.0,0.0,0.0,1.0,1,100.0,289.0,150.0,1,1.0,0,1.0,0,1.0,0,1.0,0,1.0
75471,'1',0.0,0.0,179.1,-96.3,1.02,0,100.0,0.0,1.0,0.0,0.0,1.0,1,100.0,289.0,150.0,1,1.0,0,1.0,0,1.0,0,1.0,0,1.0
75471,'2',0.0,0.0,179.1,-96.3,1.02,0,100.0,0.0,1.0,0.0,0.0,1.0,1,100.0,289.0,150.0,1,1.0,0,1.0,0,1.0,0,1.0,0,1.0
75474,'1',0.0,0.0,298.8,-205.7,1.02,0,100.0,0.0,1.0,0.0,0.0,1.0,1,100.0,617.0,90.0,1,1.0,0,1.0,0,1.0,0,1.0,0,1.0
75474,'2',0.0,0.0,172.7,-92.9,1.02,0,100.0,0.0,1.0,0.0,0.0,1.0,1,100.0,278.6,140.0,1,1.0,0,1.0,0,1.0,0,1.0,0,1.0
75474,'3',0.0,0.0,172.7,-92.9,1.02,0,100.0,0.0,1.0,0.0,0.0,1.0,1,100.0,278.6,140.0,1,1.0,0,1.0,0,1.0,0,1.0,0,1.0
75474,'4',0.0,0.0,172.7,-92.9,1.02,0,100.0,0.0,1.0,0.0,0.0,1.0,1,100.0,278.6,140.0,1,1.0,0,1.0,0,1.0,0,1.0,0,1.0
75474,'5',0.0,0.0,172.7,-92.9,1.02,0,100.0,0.0,1.0,0.0,0.0,1.0,1,100.0,278.6,140.0,1,1.0,0,1.0,0,1.0,0,1.0,0,1.0
75474,'6',0.0,0.0,195.2,-105.0,1.02,0,100.0,0.0,1.0,0.0,0.0,1.0,1,100.0,315.0,75.0,1,1.0,0,1.0,0,1.0,0,1.0,0,1.0
75474,'7',0.0,0.0,195.2,-105.0,1.02,0,100.0,0.0,1.0,0.0,0.0,1.0,1,100.0,315.0,75.0,1,1.0,0,1.0,0,1.0,0,1.0,0,1.0
75476,'1',0.0,0.0,172.7,-92.9,1.02,0,100.0,0.0,1.0,0.0,0.0,1.0,1,100.0,278.6,140.0,1,1.0,0,1.0,0,1.0,0,1.0,0,1.0
75476,'2',0.0,0.0,172.7,-92.9,1.02,0,100.0,0.0,1.0,0.0,0.0,1.0,1,100.0,278.6,140.0,1,1.0,0,1.0,0,1.0,0,1.0,0,1.0
75476,'3',0.0,0.0,195.2,-105.0,1.02,0,100.0,0.0,1.0,0.0,0.0,1.0,1,100.0,315.0,75.0,1,1.0,0,1.0,0,1.0,0,1.0,0,1.0
75478,'1',0.0,0.0,12.4,-6.7,1.02,0,100.0,0.0,1.0,0.0,0.0,1.0,1,100.0,20.0,14.0,1,1.0,0,1.0,0,1.0,0,1.0,0,1.0
75478,'2',0.0,0.0,16.9,-9.1,1.02,0,100.0,0.0,1.0,0.0,0.0,1.0,1,100.0,27.2,14.0,1,1.0,0,1.0,0,1.0,0,1.0,0,1.0
75478,'3',0.0,0.0,17.3,-7.7,1.02,0,100.0,0.0,1.0,0.0,0.0,1.0,1,100.0,23.0,5.0,1,1.0,0,1.0,0,1.0,0,1.0,0,1.0
75478,'4',0.0,0.0,54.13,-28.17,1.02,0,100.0,0.0,1.0,0.0,0.0,1.0,1,100.0,84.53,38.0,1,1.0,0,1.0,0,1.0,0,1.0,0,1.0
75478,'5',0.0,0.0,54.13,-28.17,1.02,0,100.0,0.0,1.0,0.0,0.0,1.0,1,100.0,84.53,38.0,1,1.0,0,1.0,0,1.0,0,1.0,0,1.0
75478,'6',0.0,0.0,54.13,-28.17,1.02,0,100.0,0.0,1.0,0.0,0.0,1.0,1,100.0,84.53,38.0,1,1.0,0,1.0,0,1.0,0,1.0,0,1.0
75478,'7',0.0,0.0,115.4,-62.1,1.02,0,100.0,0.0,1.0,0.0,0.0,1.0,1,100.0,186.2,90.0,1,1.0,0,1.0,0,1.0,0,1.0,0,1.0
75480,'1',0.0,0.0,230.3,-158.5,1.02,0,100.0,0.0,1.0,0.0,0.0,1.0,1,100.0,475.5,50.0,1,1.0,0,1.0,0,1.0,0,1.0,0,1.0
75480,'2',0.0,0.0,116.7,-80.3,1.02,0,100.0,0.0,1.0,0.0,0.0,1.0,1,100.0,241.0,100.0,1,1.0,0,1.0,0,1.0,0,1.0,0,1.0
75480,'3',0.0,0.0,116.7,-80.3,1.02,0,100.0,0.0,1.0,0.0,0.0,1.0,1,100.0,241.0,100.0,1,1.0,0,1.0,0,1.0,0,1.0,0,1.0
75480,'4',0.0,0.0,211.2,-211.2,1.02,0,100.0,0.0,1.0,0.0,0.0,1.0,1,100.0,642.6,350.0,1,1.0,0,1.0,0,1.0,0,1.0,0,1.0
75482,'1',0.0,0.0,77.2,-77.2,1.02,0,100.0,0.0,1.0,0.0,0.0,1.0,1,100.0,235.0,80.0,1,1.0,0,1.0,0,1.0,0,1.0,0,1.0
75482,'2',0.0,0.0,77.2,-77.2,1.02,0,100.0,0.0,1.0,0.0,0.0,1.0,1,100.0,235.0,80.0,1,1.0,0,1.0,0,1.0,0,1.0,0,1.0
75482,'3',0.0,0.0,77.2,-77.2,1.02,0,100.0,0.0,1.0,0.0,0.0,1.0,1,100.0,235.0,80.0,1,1.0,0,1.0,0,1.0,0,1.0,0,1.0
75482,'4',0.0,0.0,77.2,-77.2,1.02,0,100.0,0.0,1.0,0.0,0.0,1.0,1,100.0,235.0,80.0,1,1.0,0,1.0,0,1.0,0,1.0,0,1.0
75483,'1',0.0,0.0,75.6,-75.6,1.02,0,100.0,0.0,1.0,0.0,0.0,1.0,1,100.0,230.0,115.0,1,1.0,0,1.0,0,1.0,0,1.0,0,1.0
75483,'2',0.0,0.0,42.7,-42.7,1.02,0,100.0,0.0,1.0,0.0,0.0,1.0,1,100.0,130.0,65.0,1,1.0,0,1.0,0,1.0,0,1.0,0,1.0
75484,'1',0.0,0.0,123.9,-66.7,1.02,0,100.0,0.0,1.0,0.0,0.0,1.0,1,100.0,200.0,108.0,1,1.0,0,1.0,0,1.0,0,1.0,0,1.0
75485,'1',0.0,0.0,84.3,-45.3,1.02,0,100.0,0.0,1.0,0.0,0.0,1.0,1,100.0,136.0,60.0,1,1.0,0,1.0,0,1.0,0,1.0,0,1.0
75488,'1',0.0,0.0,30.4,-16.4,1.02,0,100.0,0.0,1.0,0.0,0.0,1.0,1,100.0,49.1,32.0,1,1.0,0,1.0,0,1.0,0,1.0,0,1.0
75488,'2',0.0,0.0,79.9,-43.0,1.02,0,100.0,0.0,1.0,0.0,0.0,1.0,1,100.0,128.9,88.0,1,1.0,0,1.0,0,1.0,0,1.0,0,1.0
75490,'1',0.0,0.0,32.3,-32.3,1.02,0,100.0,0.0,1.0,0.0,0.0,1.0,1,100.0,128.7,85.0,1,1.0,0,1.0,0,1.0,0,1.0,0,1.0
75490,'2',0.0,0.0,32.3,-32.3,1.02,0,100.0,0.0,1.0,0.0,0.0,1.0,1,100.0,128.7,85.0,1,1.0,0,1.0,0,1.0,0,1.0,0,1.0
75490,'3',0.0,0.0,32.3,-32.3,1.02,0,100.0,0.0,1.0,0.0,0.0,1.0,1,100.0,128.7,30.0,1,1.0,0,1.0,0,1.0,0,1.0,0,1.0
75492,'1',0.0,0.0,50.1,-27.0,1.02,0,100.0,0.0,1.0,0.0,0.0,1.0,1,100.0,80.9,60.0,1,1.0,0,1.0,0,1.0,0,1.0,0,1.0
75492,'2',0.0,0.0,55.8,-30.0,1.02,0,100.0,0.0,1.0,0.0,0.0,1.0,1,100.0,90.0,64.0,1,1.0,0,1.0,0,1.0,0,1.0,0,1.0
75492,'3',0.0,0.0,55.8,-30.0,1.02,0,100.0,0.0,1.0,0.0,0.0,1.0,1,100.0,90.0,64.0,1,1.0,0,1.0,0,1.0,0,1.0,0,1.0
75493,'1',0.0,0.0,35.9,-19.3,1.02,0,100.0,0.0,1.0,0.0,0.0,1.0,1,100.0,58.0,28.0,1,1.0,0,1.0,0,1.0,0,1.0,0,1.0
75493,'2',0.0,0.0,35.9,-19.3,1.02,0,100.0,0.0,1.0,0.0,0.0,1.0,1,100.0,58.0,28.0,1,1.0,0,1.0,0,1.0,0,1.0,0,1.0
75493,'3',0.0,0.0,12.1,-8.3,1.02,0,100.0,0.0,1.0,0.0,0.0,1.0,1,100.0,25.0,8.0,1,1.0,0,1.0,0,1.0,0,1.0,0,1.0
75493,'4',0.0,0.0,36.8,-25.3,1.02,0,100.0,0.0,1.0,0.0,0.0,1.0,1,100.0,76.0,37.0,1,1.0,0,1.0,0,1.0,0,1.0,0,1.0
75494,'1',0.0,0.0,7.73,-3.43,1.02,0,100.0,0.0,1.0,0.0,0.0,1.0,1,100.0,10.3,8.0,1,1.0,0,1.0,0,1.0,0,1.0,0,1.0
75494,'2',0.0,0.0,7.73,-3.43,1.02,0,100.0,0.0,1.0,0.0,0.0,1.0,1,100.0,10.3,8.0,1,1.0,0,1.0,0,1.0,0,1.0,0,1.0
75494,'3',0.0,0.0,7.73,-3.43,1.02,0,100.0,0.0,1.0,0.0,0.0,1.0,1,100.0,10.3,8.0,1,1.0,0,1.0,0,1.0,0,1.0,0,1.0
75494,'4',0.0,0.0,7.73,-3.43,1.02,0,100.0,0.0,1.0,0.0,0.0,1.0,1,100.0,10.3,8.0,1,1.0,0,1.0,0,1.0,0,1.0,0,1.0
75494,'5',0.0,0.0,7.73,-3.43,1.02,0,100.0,0.0,1.0,0.0,0.0,1.0,1,100.0,10.3,8.0,1,1.0,0,1.0,0,1.0,0,1.0,0,1.0
75494,'6',0.0,0.0,7.73,-3.43,1.02,0,100.0,0.0,1.0,0.0,0.0,1.0,1,100.0,10.3,8.0,1,1.0,0,1.0,0,1.0,0,1.0,0,1.0
...
0 / END OF GENERATOR DATA BEGIN BRANCH DATA
1,650,'1',0.0440029,0.231829,0.00416148,96.0,96.0,129.0,0.0,0.0,0.0,0.0,1,1,10.77,1,1.0,0,1.0,0,1.0,0,1.0
1,903,'1',0.0065188,0.0661654,0.00134025,154.0,154.0,199.0,0.0,0.0,0.0,0.0,1,1,3.26,1,1.0,0,1.0,0,1.0,0,1.0
1,905,'1',0.00333213,0.0364493,0.000759498,162.0,162.0,199.0,0.0,0.0,0.0,0.0,1,1,1.83,1,1.0,0,1.0,0,1.0,0,1.0
2,683,'1',0.00217379,0.00836299,0.00228418,159.0,159.0,159.0,0.0,0.0,0.0,0.0,1,1,1.52,1,1.0,0,1.0,0,1.0,0,1.0
2,75692,'1',0.000794052,0.00603894,0.00189761,253.0,259.0,259.0,0.0,0.0,0.0,0.0,1,1,1.17,1,1.0,0,1.0,0,1.0,0,1.0
2,75693,'1',0.00171474,0.00963476,0.00285464,207.0,211.0,211.0,0.0,0.0,0.0,0.0,1,1,1.82,1,1.0,0,1.0,0,1.0,0,1.0
2,75696,'1',0.000335965,0.00356044,0.00105683,307.0,307.0,307.0,0.0,0.0,0.0,0.0,1,1,0.67,1,1.0,0,1.0,0,1.0,0,1.0
3,6,'1',0.000176282,0.00201502,3.8408e-05,162.0,162.0,199.0,0.0,0.0,0.0,0.0,1,1,0.1,1,1.0,0,1.0,0,1.0,0,1.0
3,236,'1',0.000999816,0.0101479,0.000205553,154.0,154.0,199.0,0.0,0.0,0.0,0.0,1,1,0.5,1,1.0,0,1.0,0,1.0,0,1.0
4,12,'1',0.00416723,0.0203445,0.000426326,96.0,96.0,129.0,0.0,0.0,0.0,0.0,1,1,1.02,1,1.0,0,1.0,0,1.0,0,1.0
4,276,'1',0.0224763,0.0550162,0.000940668,59.0,59.0,99.0,0.0,0.0,0.0,0.0,1,1,2.5,1,1.0,0,1.0,0,1.0,0,1.0
4,279,'1',0.0107478,0.0284044,0.000415527,59.0,59.0,99.0,0.0,0.0,0.0,0.0,1,1,1.19,1,1.0,0,1.0,0,1.0,0,1.0
4,280,'1',0.00392264,0.0429089,0.000894099,162.0,162.0,199.0,0.0,0.0,0.0,0.0,1,1,2.15,1,1.0,0,1.0,0,1.0,0,1.0
5,952,'1',0.00413977,0.0227157,0.00600443,193.0,193.0,193.0,0.0,0.0,0.0,0.0,1,1,4.05,1,1.0,0,1.0,0,1.0,0,1.0
5,75764,'1',0.0101647,0.0258509,0.00654076,118.0,118.0,118.0,0.0,0.0,0.0,0.0,1,1,4.52,1,1.0,0,1.0,0,1.0,0,1.0
5,75765,'1',0.00107397,0.0129703,0.00735527,523.0,523.0,523.0,0.0,0.0,0.0,0.0,1,1,3.4,1,1.0,0,1.0,0,1.0,0,1.0
6,235,'1',0.00630091,0.0166521,0.000243603,59.0,59.0,99.0,0.0,0.0,0.0,0.0,1,1,0.7,1,1.0,0,1.0,0,1.0,0,1.0
6,236,'1',0.00134834,0.00934307,0.000192108,119.0,119.0,149.0,0.0,0.0,0.0,0.0,1,1,0.46,1,1.0,0,1.0,0,1.0,0,1.0
6,237,'1',0.00099799,0.0100539,0.000247701,162.0,162.0,199.0,0.0,0.0,0.0,0.0,1,1,0.55,1,1.0,0,1.0,0,1.0,0,1.0
6,268,'1',0.00525814,0.0231672,0.00040241,88.0,88.0,129.0,0.0,0.0,0.0,0.0,1,1,1.06,1,1.0,0,1.0,0,1.0,0,1.0
7,623,'1',0.0164766,0.0763537,0.00146439,92.0,92.0,129.0,0.0,0.0,0.0,0.0,1,1,3.66,1,1.0,0,1.0,0,1.0,0,1.0
7,625,'1',0.0190739,0.0763651,0.00120242,80.0,80.0,129.0,0.0,0.0,0.0,0.0,1,1,3.33,1,1.0,0,1.0,0,1.0,0,1.0
7,630,'1',0.0259444,0.0685671,0.00100308,59.0,59.0,99.0,0.0,0.0,0.0,0.0,1,1,2.88,1,1.0,0,1.0,0,1.0,0,1.0
7,631,'1',0.0259797,0.0737234,0.00115837,64.0,64.0,119.0,0.0,0.0,0.0,0.0,1,1,3.2,1,1.0,0,1.0,0,1.0,0,1.0
8,812,'1',0.0016434,0.0104086,0.000176556,110.0,110.0,139.0,0.0,0.0,0.0,0.0,1,1,0.47,1,1.0,0,1.0,0,1.0,0,1.0
8,821,'1',0.00505125,0.0133495,0.00019529,59.0,59.0,99.0,0.0,0.0,0.0,0.0,1,1,0.56,1,1.0,0,1.0,0,1.0,0,1.0
8,822,'1',0.0103604,0.0266324,0.000412168,59.0,59.0,99.0,0.0,0.0,0.0,0.0,1,1,1.15,1,1.0,0,1.0,0,1.0,0,1.0
8,825,'1',0.0132758,0.0478046,0.000648196,71.0,71.0,119.0,0.0,0.0,0.0,0.0,1,1,1.93,1,1.0,0,1.0,0,1.0,0,1.0
9,733,'1',0.0267622,0.068061,0.00107627,59.0,59.0,99.0,0.0,0.0,0.0,0.0,1,1,2.97,1,1.0,0,1.0,0,1.0,0,1.0
9,753,'1',0.00613338,0.015598,0.000246653,59.0,59.0,99.0,0.0,0.0,0.0,0.0,1,1,0.68,1,1.0,0,1.0,0,1.0,0,1.0
9,754,'1',0.00187384,0.0204974,0.000427105,162.0,162.0,199.0,0.0,0.0,0.0,0.0,1,1,1.03,1,1.0,0,1.0,0,1.0,0,1.0
9,761,'1',0.0289722,0.0736814,0.00116515,59.0,59.0,99.0,0.0,0.0,0.0,0.0,1,1,3.22,1,1.0,0,1.0,0,1.0,0,1.0
10,857,'1',0.0494122,0.120953,0.00206815,59.0,59.0,99.0,0.0,0.0,0.0,0.0,1,1,5.49,1,1.0,0,1.0,0,1.0,0,1.0
10,900,'1',0.0262592,0.0845586,0.00144043,71.0,71.0,119.0,0.0,0.0,0.0,0.0,1,1,3.82,1,1.0,0,1.0,0,1.0,0,1.0
10,902,'1',0.0107217,0.0283354,0.000414519,59.0,59.0,99.0,0.0,0.0,0.0,0.0,1,1,1.19,1,1.0,0,1.0,0,1.0,0,1.0
10,903,'1',0.0503083,0.167837,0.00266057,71.0,71.0,119.0,0.0,0.0,0.0,0.0,1,1,7.31,1,1.0,0,1.0,0,1.0,0,1.0
11,217,'1',0.0307067,0.0811536,0.00118722,59.0,59.0,99.0,0.0,0.0,0.0,0.0,1,1,3.41,1,1.0,0,1.0,0,1.0,0,1.0
11,232,'1',0.00430046,0.0261353,0.000482141,114.0,124.0,149.0,0.0,0.0,0.0,0.0,1,1,1.23,1,1.0,0,1.0,0,1.0,0,1.0
11,233,'1',0.0023338,0.014348,0.000258606,113.0,124.0,149.0,0.0,0.0,0.0,0.0,1,1,0.67,1,1.0,0,1.0,0,1.0,0,1.0
11,234,'1',0.00051065,0.00268991,4.82743e-05,112.0,129.0,139.0,0.0,0.0,0.0,0.0,1,1,0.12,1,1.0,0,1.0,0,1.0,0,1.0
11,236,'1',0.00157611,0.018016,0.0003434,162.0,162.0,199.0,0.0,0.0,0.0,0.0,1,1,0.86,1,1.0,0,1.0,0,1.0,0,1.0
12,691,'1',0.0231131,0.0536516,0.00102157,59.0,59.0,99.0,0.0,0.0,0.0,0.0,1,1,2.57,1,1.0,0,1.0,0,1.0,0,1.0
12,696,'1',0.0122117,0.0298908,0.000511069,59.0,59.0,99.0,0.0,0.0,0.0,0.0,1,1,1.36,1,1.0,0,1.0,0,1.0,0,1.0
13,430,'1',0.000421012,0.00481244,9.17291e-05,162.0,162.0,199.0,0.0,0.0,0.0,0.0,1,1,0.23,1,1.0,0,1.0,0,1.0,0,1.0
13,432,'1',0.0101208,0.0389365,0.00066467,80.0,80.0,129.0,0.0,0.0,0.0,0.0,1,1,1.77,1,1.0,0,1.0,0,1.0,0,1.0
14,273,'1',0.0201074,0.0531404,0.000777397,59.0,59.0,99.0,0.0,0.0,0.0,0.0,1,1,2.23,1,1.0,0,1.0,0,1.0,0,1.0
14,274,'1',0.0121377,0.0308679,0.000488117,60.0,63.0,119.0,0.0,0.0,0.0,0.0,1,1,1.35,1,1.0,0,1.0,0,1.0,0,1.0
14,275,'1',0.00477114,0.0101862,0.000229945,59.0,59.0,99.0,0.0,0.0,0.0,0.0,1,1,0.53,1,1.0,0,1.0,0,1.0,0,1.0
14,693,'1',0.0101168,0.0257285,0.000406848,59.0,59.0,99.0,0.0,0.0,0.0,0.0,1,1,1.12,1,1.0,0,1.0,0,1.0,0,1.0
15,730,'1',0.0132214,0.0795486,0.00108951,96.0,96.0,129.0,0.0,0.0,0.0,0.0,1,1,3.23,1,1.0,0,1.0,0,1.0,0,1.0
15,753,'1',0.00623368,0.0141399,0.00028208,59.0,59.0,99.0,0.0,0.0,0.0,0.0,1,1,0.69,1,1.0,0,1.0,0,1.0,0,1.0
15,756,'1',0.0106271,0.0270262,0.000427367,59.0,59.0,99.0,0.0,0.0,0.0,0.0,1,1,1.18,1,1.0,0,1.0,0,1.0,0,1.0
16,503,'1',0.00720124,0.0183138,0.000289597,59.0,59.0,99.0,0.0,0.0,0.0,0.0,1,1,0.8,1,1.0,0,1.0,0,1.0,0,1.0
16,523,'1',0.0101214,0.0267489,0.000391309,59.0,59.0,99.0,0.0,0.0,0.0,0.0,1,1,1.12,1,1.0,0,1.0,0,1.0,0,1.0
17,507,'1',0.00175376,0.00923813,0.000165791,96.0,96.0,129.0,0.0,0.0,0.0,0.0,1,1,0.43,1,1.0,0,1.0,0,1.0,0,1.0
17,508,'1',0.0034377,0.00779775,0.000155559,59.0,59.0,99.0,0.0,0.0,0.0,0.0,1,1,0.38,1,1.0,0,1.0,0,1.0,0,1.0
17,509,'1',0.00367076,0.00970113,0.000141917,59.0,59.0,99.0,0.0,0.0,0.0,0.0,1,1,0.41,1,1.0,0,1.0,0,1.0,0,1.0
18,500,'1',0.00647188,0.0319721,0.000583602,95.0,95.0,129.0,0.0,0.0,0.0,0.0,1,1,1.5,1,1.0,0,1.0,0,1.0,0,1.0
18,527,'1',0.011044,0.0291872,0.000426979,59.0,59.0,99.0,0.0,0.0,0.0,0.0,1,1,1.23,1,1.0,0,1.0,0,1.0,0,1.0
18,529,'1',0.0124499,0.0304738,0.000521038,59.0,59.0,99.0,0.0,0.0,0.0,0.0,1,1,1.38,1,1.0,0,1.0,0,1.0,0,1.0
19,326,'1',0.0109915,0.0279529,0.000442021,59.0,59.0,99.0,0.0,0.0,0.0,0.0,1,1,1.22,1,1.0,0,1.0,0,1.0,0,1.0
19,803,'1',0.00395048,0.0432134,0.000900445,162.0,162.0,199.0,0.0,0.0,0.0,0.0,1,1,2.17,1,1.0,0,1.0,0,1.0,0,1.0
19,807,'1',0.0238644,0.0955458,0.00150445,80.0,80.0,129.0,0.0,0.0,0.0,0.0,1,1,4.16,1,1.0,0,1.0,0,1.0,0,1.0
20,960,'1',0.000729057,0.0038404,0.00110274,193.0,193.0,193.0,0.0,0.0,0.0,0.0,1,1,0.71,1,1.0,0,1.0,0,1.0,0,1.0
20,75769,'1',0.00559295,0.0142238,0.00359878,118.0,118.0,118.0,0.0,0.0,0.0,0.0,1,1,2.49,1,1.0,0,1.0,0,1.0,0,1.0
21,290,'1',0.0168789,0.0535948,0.000939692,71.0,71.0,119.0,0.0,0.0,0.0,0.0,1,1,2.45,1,1.0,0,1.0,0,1.0,0,1.0
21,331,'1',0.0368433,0.0937001,0.00148173,59.0,59.0,99.0,0.0,0.0,0.0,0.0,1,1,4.09,1,1.0,0,1.0,0,1.0,0,1.0
21,799,'1',0.018276,0.087106,0.00157704,92.0,92.0,129.0,0.0,0.0,0.0,0.0,1,1,4.06,1,1.0,0,1.0,0,1.0,0,1.0
22,849,'1',0.0141624,0.0410017,0.000498383,59.0,59.0,99.0,0.0,0.0,0.0,0.0,1,1,1.57,1,1.0,0,1.0,0,1.0,0,1.0
22,873,'1',0.00609955,0.015512,0.000245292,59.0,59.0,99.0,0.0,0.0,0.0,0.0,1,1,0.68,1,1.0,0,1.0,0,1.0,0,1.0
23,527,'1',0.00566831,0.0140689,0.000233788,59.0,59.0,99.0,0.0,0.0,0.0,0.0,1,1,0.63,1,1.0,0,1.0,0,1.0,0,1.0
24,925,'1',0.00567925,0.0311637,0.00823773,193.0,193.0,193.0,0.0,0.0,0.0,0.0,1,1,5.56,1,1.0,0,1.0,0,1.0,0,1.0
24,930,'1',0.000221188,0.00116513,0.00033456,193.0,193.0,193.0,0.0,0.0,0.0,0.0,1,1,0.22,1,1.0,0,1.0,0,1.0,0,1.0
24,75757,'1',0.00219849,0.00835656,0.00233921,159.0,159.0,159.0,0.0,0.0,0.0,0.0,1,1,1.53,1,1.0,0,1.0,0,1.0,0,1.0
25,567,'1',0.00764409,0.0384055,0.000624651,92.0,92.0,129.0,0.0,0.0,0.0,0.0,1,1,1.7,1,1.0,0,1.0,0,1.0,0,1.0
25,572,'1',0.0100663,0.0255999,0.000404814,59.0,59.0,99.0,0.0,0.0,0.0,0.0,1,1,1.12,1,1.0,0,1.0,0,1.0,0,1.0
26,143,'1',0.00984479,0.026018,0.000380616,59.0,59.0,99.0,0.0,0.0,0.0,0.0,1,1,1.09,1,1.0,0,1.0,0,1.0,0,1.0
26,144,'1',0.0134981,0.0343276,0.000542826,59.0,59.0,99.0,0.0,0.0,0.0,0.0,1,1,1.5,1,1.0,0,1.0,0,1.0,0,1.0
26,160,'1',0.00935526,0.0237918,0.000376221,59.0,75.0,99.0,0.0,0.0,0.0,0.0,1,1,1.04,1,1.0,0,1.0,0,1.0,0,1.0
26,170,'1',0.00215911,0.00542742,8.78778e-05,59.0,75.0,99.0,0.0,0.0,0.0,0.0,1,1,0.24,1,1.0,0,1.0,0,1.0,0,1.0
27,773,'1',0.00139402,0.0150464,0.000322157,162.0,162.0,199.0,0.0,0.0,0.0,0.0,1,1,0.76,1,1.0,0,1.0,0,1.0,0,1.0
27,775,'1',0.00814422,0.0215237,0.000314869,59.0,59.0,99.0,0.0,0.0,0.0,0.0,1,1,0.91,1,1.0,0,1.0,0,1.0,0,1.0
28,592,'1',0.00876388,0.0231613,0.000338826,59.0,59.0,99.0,0.0,0.0,0.0,0.0,1,1,0.97,1,1.0,0,1.0,0,1.0,0,1.0
28,593,'1',0.00105,0.00301152,4.63124e-05,64.0,64.0,119.0,0.0,0.0,0.0,0.0,1,1,0.13,1,1.0,0,1.0,0,1.0,0,1.0
28,599,'1',0.00928835,0.0236216,0.00037353,59.0,59.0,99.0,0.0,0.0,0.0,0.0,1,1,1.03,1,1.0,0,1.0,0,1.0,0,1.0
29,588,'1',0.0346637,0.0871372,0.00141092,59.0,59.0,99.0,0.0,0.0,0.0,0.0,1,1,3.85,1,1.0,0,1.0,0,1.0,0,1.0
29,599,'1',0.00643093,0.0145873,0.000291005,59.0,59.0,99.0,0.0,0.0,0.0,0.0,1,1,0.71,1,1.0,0,1.0,0,1.0,0,1.0
29,600,'1',0.00331144,0.0357423,0.000765279,162.0,162.0,199.0,0.0,0.0,0.0,0.0,1,1,1.82,1,1.0,0,1.0,0,1.0,0,1.0
30,569,'1',0.00729326,0.0192747,0.000281969,59.0,59.0,99.0,0.0,0.0,0.0,0.0,1,1,0.81,1,1.0,0,1.0,0,1.0,0,1.0
30,572,'1',0.00540154,0.0247796,0.000396732,88.0,88.0,129.0,0.0,0.0,0.0,0.0,1,1,1.09,1,1.0,0,1.0,0,1.0,0,1.0
31,132,'1',0.0518868,0.137134,0.00200626,59.0,59.0,99.0,0.0,0.0,0.0,0.0,1,1,5.77,1,1.0,0,1.0,0,1.0,0,1.0
31,136,'1',0.00424129,0.0469692,0.000954827,162.0,162.0,199.0,0.0,0.0,0.0,0.0,1,1,2.33,1,1.0,0,1.0,0,1.0,0,1.0
31,139,'1',0.00260956,0.0256875,0.000663464,162.0,162.0,199.0,0.0,0.0,0.0,0.0,1,1,1.43,1,1.0,0,1.0,0,1.0,0,1.0
31,140,'1',0.00755855,0.0190001,0.00030764,59.0,59.0,99.0,0.0,0.0,0.0,0.0,1,1,0.84,1,1.0,0,1.0,0,1.0,0,1.0
31,141,'1',0.00603836,0.0153564,0.000242831,59.0,63.0,99.0,0.0,0.0,0.0,0.0,1,1,0.67,1,1.0,0,1.0,0,1.0,0,1.0
31,143,'1',0.0149035,0.0393873,0.000576198,59.0,59.0,99.0,0.0,0.0,0.0,0.0,1,1,1.66,1,1.0,0,1.0,0,1.0,0,1.0
31,144,'1',0.00722879,0.0191044,0.000279477,59.0,59.0,99.0,0.0,0.0,0.0,0.0,1,1,0.8,1,1.0,0,1.0,0,1.0,0,1.0
32,1347,'1',0.00105916,0.0115858,0.000241413,162.0,162.0,199.0,0.0,0.0,0.0,0.0,1,1,0.58,1,1.0,0,1.0,0,1.0,0,1.0
32,1348,'1',0.008503,0.087359,0.001727,100.0,100.0,139.0,0.0,0.0,0.0,0.0,1,1,4.25,1,1.0,0,1.0,0,1.0,0,1.0
32,1348,'2',0.008503,0.087359,0.001727,100.0,100.0,139.0,0.0,0.0,0.0,0.0,1,1,4.25,1,1.0,0,1.0,0,1.0,0,1.0
33,1718,'1',0.0420333,0.0975728,0.00185792,59.0,59.0,99.0,0.0,0.0,0.0,0.0,1,1,4.67,1,1.0,0,1.0,0,1.0,0,1.0
33,1756,'1',0.019862,0.0655454,0.00106184,71.0,71.0,119.0,0.0,0.0,0.0,0.0,1,1,2.89,1,1.0,0,1.0,0,1.0,0,1.0
33,1758,'1',0.00645459,0.0324521,0.000881984,110.0,110.0,139.0,0.0,0.0,0.0,0.0,1,1,1.84,1,1.0,0,1.0,0,1.0,0,1.0
33,1759,'1',0.0145912,0.0642892,0.00111671,88.0,88.0,129.0,0.0,0.0,0.0,0.0,1,1,2.95,1,1.0,0,1.0,0,1.0,0,1.0
33,1760,'1',0.0191856,0.0835049,0.00148692,88.0,88.0,129.0,0.0,0.0,0.0,0.0,1,1,3.88,1,1.0,0,1.0,0,1.0,0,1.0
33,1813,'1',0.0237638,0.114661,0.00202471,92.0,92.0,129.0,0.0,0.0,0.0,0.0,1,1,5.28,1,1.0,0,1.0,0,1.0,0,1.0
34,1395,'1',0.042407,0.106603,0.00172614,59.0,59.0,99.0,0.0,0.0,0.0,0.0,1,1,4.71,1,1.0,0,1.0,0,1.0,0,1.0
34,1406,'1',0.0739039,0.195335,0.0028579,59.0,59.0,99.0,0.0,0.0,0.0,0.0,1,1,8.21,1,1.0,0,1.0,0,1.0,0,1.0
34,3338,'1',0.0684989,0.38506,0.00713523,103.0,103.0,139.0,0.0,0.0,0.0,0.0,1,1,18.22,1,1.0,0,1.0,0,1.0,0,1.0
34,3476,'1',0.0984492,0.317114,0.00540396,71.0,71.0,119.0,0.0,0.0,0.0,0.0,1,1,14.32,1,1.0,0,1.0,0,1.0,0,1.0
35,434,'1',0.0442139,0.116853,0.00170952,59.0,59.0,99.0,0.0,0.0,0.0,0.0,1,1,4.91,1,1.0,0,1.0,0,1.0,0,1.0
35,438,'1',0.0335643,0.0862819,0.00133535,59.0,59.0,99.0,0.0,0.0,0.0,0.0,1,1,3.73,1,1.0,0,1.0,0,1.0,0,1.0
35,1803,'1',0.0179539,0.0592485,0.000959824,71.0,71.0,119.0,0.0,0.0,0.0,0.0,1,1,2.61,1,1.0,0,1.0,0,1.0,0,1.0
36,2209,'1',0.0117606,0.0714741,0.00131857,110.0,110.0,139.0,0.0,0.0,0.0,0.0,1,1,3.36,1,1.0,0,1.0,0,1.0,0,1.0
36,2219,'1',0.0407126,0.204572,0.00332782,92.0,92.0,129.0,0.0,0.0,0.0,0.0,1,1,9.05,1,1.0,0,1.0,0,1.0,0,1.0
36,2292,'1',0.0179014,0.0444319,0.000738347,59.0,59.0,99.0,0.0,0.0,0.0,0.0,1,1,1.99,1,1.0,0,1.0,0,1.0,0,1.0
37,2292,'1',0.0130048,0.0905992,0.00212879,125.0,125.0,149.0,0.0,0.0,0.0,0.0,1,1,4.8,1,1.0,0,1.0,0,1.0,0,1.0
37,2746,'1',0.0250877,0.125479,0.00223379,95.0,95.0,129.0,0.0,0.0,0.0,0.0,1,1,5.8,1,1.0,0,1.0,0,1.0,0,1.0
37,2750,'1',0.0191427,0.0492085,0.000761564,59.0,59.0,99.0,0.0,0.0,0.0,0.0,1,1,2.13,1,1.0,0,1.0,0,1.0,0,1.0
38,1985,'1',0.00220126,0.024079,0.000501734,162.0,162.0,199.0,0.0,0.0,0.0,0.0,1,1,1.21,1,1.0,0,1.0,0,1.0,0,1.0
38,2007,'1',0.00261916,0.0290051,0.000589635,162.0,162.0,199.0,0.0,0.0,0.0,0.0,1,1,1.44,1,1.0,0,1.0,0,1.0,0,1.0
38,2024,'1',0.00162095,0.0169677,0.000386828,162.0,162.0,199.0,0.0,0.0,0.0,0.0,1,1,0.89,1,1.0,0,1.0,0,1.0,0,1.0
38,2446,'1',0.00908622,0.0498569,0.000823647,96.0,96.0,129.0,0.0,0.0,0.0,0.0,1,1,2.22,1,1.0,0,1.0,0,1.0,0,1.0
38,2462,'1',0.00703141,0.0445345,0.000755421,110.0,110.0,139.0,0.0,0.0,0.0,0.0,1,1,2.01,1,1.0,0,1.0,0,1.0,0,1.0
38,2576,'1',0.00227216,0.0230619,0.000467135,154.0,154.0,199.0,0.0,0.0,0.0,0.0,1,1,1.13,1,1.0,0,1.0,0,1.0,0,1.0
39,49,'1',0.00247224,0.0108926,0.000189202,103.0,120.0,139.0,0.0,0.0,0.0,0.0,1,1,0.5,1,1.0,0,1.0,0,1.0,0,1.0
39,2247,'1',0.0161779,0.0661187,0.00133754,88.0,88.0,129.0,0.0,0.0,0.0,0.0,1,1,3.27,1,1.0,0,1.0,0,1.0,0,1.0
39,2251,'1',0.0027559,0.0301461,0.000628156,162.0,162.0,199.0,0.0,0.0,0.0,0.0,1,1,1.51,1,1.0,0,1.0,0,1.0,0,1.0
39,2264,'1',0.00161076,0.0176197,0.000367141,162.0,162.0,199.0,0.0,0.0,0.0,0.0,1,1,0.88,1,1.0,0,1.0,0,1.0,0,1.0
39,2285,'1',0.00410569,0.0208909,0.000473351,103.0,103.0,139.0,0.0,0.0,0.0,0.0,1,1,1.09,1,1.0,0,1.0,0,1.0,0,1.0
40,2039,'1',0.00237983,0.0159449,0.000305282,115.0,115.0,149.0,0.0,0.0,0.0,0.0,1,1,0.76,1,1.0,0,1.0,0,1.0,0,1.0
40,2437,'1',0.00242299,0.0112499,0.000307145,103.0,103.0,139.0,0.0,0.0,0.0,0.0,1,1,0.64,1,1.0,0,1.0,0,1.0,0,1.0
40,2441,'1',0.00243384,0.0121725,0.000216682,95.0,95.0,129.0,0.0,0.0,0.0,0.0,1,1,0.56,1,1.0,0,1.0,0,1.0,0,1.0
40,2477,'1',0.0120301,0.0317933,0.000465105,59.0,59.0,99.0,0.0,0.0,0.0,0.0,1,1,1.34,1,1.0,0,1.0,0,1.0,0,1.0
40,2605,'1',0.00170517,0.00682679,0.00010749,80.0,80.0,129.0,0.0,0.0,0.0,0.0,1,1,0.3,1,1.0,0,1.0,0,1.0,0,1.0
41,1455,'1',0.00548003,0.0450527,0.000873239,131.0,131.0,149.0,0.0,0.0,0.0,0.0,1,1,2.17,1,1.0,0,1.0,0,1.0,0,1.0
41,1472,'1',0.00340985,0.0368045,0.000788022,162.0,162.0,199.0,0.0,0.0,0.0,0.0,1,1,1.87,1,1.0,0,1.0,0,1.0,0,1.0
41,1478,'1',0.0090866,0.0845947,0.00163779,141.0,141.0,149.0,0.0,0.0,0.0,0.0,1,1,4.07,1,1.0,0,1.0,0,1.0,0,1.0
41,1483,'1',0.0381904,0.0971263,0.00153591,59.0,59.0,99.0,0.0,0.0,0.0,0.0,1,1,4.24,1,1.0,0,1.0,0,1.0,0,1.0
41,3079,'1',0.0449994,0.150123,0.00237972,71.0,71.0,119.0,0.0,0.0,0.0,0.0,1,1,6.54,1,1.0,0,1.0,0,1.0,0,1.0
41,3087,'1',0.0282713,0.106058,0.00190637,80.0,80.0,129.0,0.0,0.0,0.0,0.0,1,1,4.93,1,1.0,0,1.0,0,1.0,0,1.0
42,1701,'1',0.0321464,0.110277,0.00165122,71.0,71.0,119.0,0.0,0.0,0.0,0.0,1,1,4.67,1,1.0,0,1.0,0,1.0,0,1.0
42,1711,'1',0.044408,0.136383,0.00255939,71.0,71.0,119.0,0.0,0.0,0.0,0.0,1,1,6.45,1,1.0,0,1.0,0,1.0,0,1.0
42,2824,'1',0.0520039,0.274001,0.00491895,96.0,96.0,129.0,0.0,0.0,0.0,0.0,1,1,12.73,1,1.0,0,1.0,0,1.0,0,1.0
43,2769,'1',0.0243727,0.0836083,0.00125188,71.0,71.0,119.0,0.0,0.0,0.0,0.0,1,1,3.54,1,1.0,0,1.0,0,1.0,0,1.0
43,2772,'1',0.023828,0.0605986,0.000958261,59.0,59.0,99.0,0.0,0.0,0.0,0.0,1,1,2.65,1,1.0,0,1.0,0,1.0,0,1.0
43,2775,'1',0.0496936,0.126384,0.00199862,59.0,59.0,99.0,0.0,0.0,0.0,0.0,1,1,5.52,1,1.0,0,1.0,0,1.0,0,1.0
43,2777,'1',0.0445322,0.148564,0.00235501,71.0,71.0,119.0,0.0,0.0,0.0,0.0,1,1,6.47,1,1.0,0,1.0,0,1.0,0,1.0
44,67,'1',0.00951088,0.052771,0.00100255,103.0,103.0,139.0,0.0,0.0,0.0,0.0,1,1,2.53,1,1.0,0,1.0,0,1.0,0,1.0
44,1429,'1',0.0311256,0.106775,0.00159877,71.0,71.0,119.0,0.0,0.0,0.0,0.0,1,1,4.52,1,1.0,0,1.0,0,1.0,0,1.0
44,1432,'1',0.0153649,0.0406067,0.000594037,59.0,59.0,99.0,0.0,0.0,0.0,0.0,1,1,1.71,1,1.0,0,1.0,0,1.0,0,1.0
44,1433,'1',0.0232975,0.0592493,0.000936923,59.0,59.0,99.0,0.0,0.0,0.0,0.0,1,1,2.59,1,1.0,0,1.0,0,1.0,0,1.0
45,1777,'1',0.0215021,0.0568264,0.00083132,59.0,59.0,99.0,0.0,0.0,0.0,0.0,1,1,2.39,1,1.0,0,1.0,0,1.0,0,1.0
45,1836,'1',0.0378517,0.124916,0.00202373,71.0,71.0,119.0,0.0,0.0,0.0,0.0,1,1,5.5,1,1.0,0,1.0,0,1.0,0,1.0
45,1842,'1',0.0198308,0.0654423,0.00106017,71.0,71.0,119.0,0.0,0.0,0.0,0.0,1,1,2.88,1,1.0,0,1.0,0,1.0,0,1.0
45,1846,'1',0.0197784,0.052271,0.000764677,59.0,59.0,99.0,0.0,0.0,0.0,0.0,1,1,2.2,1,1.0,0,1.0,0,1.0,0,1.0
46,2747,'1',0.0112197,0.0260437,0.00049589,59.0,59.0,99.0,0.0,0.0,0.0,0.0,1,1,1.25,1,1.0,0,1.0,0,1.0,0,1.0
46,2780,'1',0.05119,0.293543,0.00365122,92.0,92.0,129.0,0.0,0.0,0.0,0.0,1,1,11.38,1,1.0,0,1.0,0,1.0,0,1.0
47,2296,'1',0.000904712,0.00549822,0.00162288,219.0,219.0,219.0,0.0,0.0,0.0,0.0,1,1,1.03,1,1.0,0,1.0,0,1.0,0,1.0
48,1734,'1',0.0114295,0.0392073,0.000587045,71.0,71.0,119.0,0.0,0.0,0.0,0.0,1,1,1.66,1,1.0,0,1.0,0,1.0,0,1.0
48,1735,'1',0.00661976,0.0363231,0.000600062,96.0,96.0,129.0,0.0,0.0,0.0,0.0,1,1,1.62,1,1.0,0,1.0,0,1.0,0,1.0
49,2253,'1',0.00183158,0.0200352,0.000417473,162.0,162.0,199.0,0.0,0.0,0.0,0.0,1,1,1.0,1,1.0,0,1.0,0,1.0,0,1.0
50,2466,'1',0.00328827,0.00869028,0.00012713,59.0,59.0,99.0,0.0,0.0,0.0,0.0,1,1,0.37,1,1.0,0,1.0,0,1.0,0,1.0
...